data_Hf-UiO-66
_symmetry_space_group_name_H-M 'F -4 3 M'
_space_group_IT_number         216
_cell_length_a                 20.59348266
_cell_length_b                 20.59348266
_cell_length_c                 20.59348266
_cell_angle_alpha              90.000000
_cell_angle_beta               90.000000
_cell_angle_gamma              90.000000
loop_
_atom_site_label
_atom_site_type_symbol
_atom_site_fract_x
_atom_site_fract_y
_atom_site_fract_z
C1 C 6.582051403328E-03 -2.975257259392E-01 2.024742740608E-01
C2 C 6.982352931025E-03 -1.846708918293E-01 2.322097579011E-01
C3 C -4.192169786897E-03 1.514598958985E-01 3.485401041015E-01
H4 H -9.416283399889E-02 9.416283399889E-02 -4.058371660011E-01
H5 H 6.840168248678E-03 2.199244656309E-01 -1.333423171891E-01
O6 O 2.486744299667E-03 3.296641676556E-01 -9.313420684486E-02
O7 O 4.503398513647E-01 4.966014863530E-02 -4.966014863530E-02
O8 O -6.719481551619E-02 4.328051844838E-01 -6.719481551619E-02
Hf9 Hf 0.000000000000E+00 3.808904437794E-01 0.000000000000E+00

