data_Hf-UiO-66
_symmetry_space_group_name_H-M 'F -4 3 M'
_space_group_IT_number         216
_cell_length_a                 20.56150387
_cell_length_b                 20.56150387
_cell_length_c                 20.56150387
_cell_angle_alpha              90.000000
_cell_angle_beta               90.000000
_cell_angle_gamma              90.000000
loop_
_atom_site_label
_atom_site_type_symbol
_atom_site_fract_x
_atom_site_fract_y
_atom_site_fract_z
C1 C 6.865376797393E-03 2.024948605829E-01 -2.975051394171E-01
C2 C 7.303254065091E-03 -1.845516544314E-01 2.321390972385E-01
C3 C -4.302057458384E-03 -3.485206029082E-01 -1.514793970918E-01
H4 H 4.056984121765E-01 9.430158782351E-02 9.430158782351E-02
H5 H 7.145459563779E-03 2.199202168668E-01 -1.331265512743E-01
O6 O 2.517020846543E-03 3.295630809161E-01 -9.309954247873E-02
O7 O -4.973941248302E-02 -4.502605875170E-01 -4.973941248302E-02
O8 O 4.327058421226E-01 -6.729415787742E-02 -6.729415787742E-02
Hf9 Hf 9.238130725800E-22 3.808005418908E-01 0.000000000000E+00

