data_Hf-UiO-66
_symmetry_space_group_name_H-M 'F -4 3 M'
_space_group_IT_number         216
_cell_length_a                 20.53016035
_cell_length_b                 20.53016035
_cell_length_c                 20.53016035
_cell_angle_alpha              90.000000
_cell_angle_beta               90.000000
_cell_angle_gamma              90.000000
loop_
_atom_site_label
_atom_site_type_symbol
_atom_site_fract_x
_atom_site_fract_y
_atom_site_fract_z
C1 C 7.181123881505E-03 2.025156010065E-01 -2.974843989935E-01
C2 C 7.660657582708E-03 -1.844343320766E-01 2.320695298913E-01
C3 C -4.426202423236E-03 -3.485008427649E-01 -1.514991572351E-01
H4 H 4.055579673891E-01 9.444203261091E-02 9.444203261091E-02
H5 H 7.481475667803E-03 2.199147959021E-01 -1.329149441016E-01
O6 O 2.551651855156E-03 3.294626579285E-01 -9.306701607007E-02
O7 O -4.980866901988E-02 -4.501913309801E-01 -4.980866901988E-02
O8 O 4.326040705985E-01 -6.739592940154E-02 -6.739592940154E-02
Hf9 Hf 1.250176968061E-21 3.807090653916E-01 0.000000000000E+00

