data_Hf-UiO-66
_symmetry_space_group_name_H-M 'F -4 3 M'
_space_group_IT_number         216
_cell_length_a                 20.49939841
_cell_length_b                 20.49939841
_cell_length_c                 20.49939841
_cell_angle_alpha              90.000000
_cell_angle_beta               90.000000
_cell_angle_gamma              90.000000
loop_
_atom_site_label
_atom_site_type_symbol
_atom_site_fract_x
_atom_site_fract_y
_atom_site_fract_z
C1 C 7.525787058133E-03 2.025364973367E-01 -2.974635026633E-01
C2 C 8.051466414462E-03 -1.843187984555E-01 2.320008345663E-01
C3 C -4.554732002889E-03 -3.484804770677E-01 -1.515195229323E-01
H4 H 4.054215451604E-01 9.457845483958E-02 9.457845483958E-02
H5 H 7.847848605283E-03 2.199089956278E-01 -1.327065433312E-01
O6 O 2.577684956435E-03 3.293595350882E-01 -9.303748060401E-02
O7 O -4.988397831657E-02 -4.501160216834E-01 -4.988397831657E-02
O8 O 4.325059162458E-01 -6.749408375419E-02 -6.749408375419E-02
Hf9 Hf 1.598882170498E-21 3.806209871481E-01 0.000000000000E+00

