data_Hf-UiO-66
_symmetry_space_group_name_H-M 'F -4 3 M'
_space_group_IT_number         216
_cell_length_a                 20.62585054
_cell_length_b                 20.62585054
_cell_length_c                 20.62585054
_cell_angle_alpha              90.000000
_cell_angle_beta               90.000000
_cell_angle_gamma              90.000000
loop_
_atom_site_label
_atom_site_type_symbol
_atom_site_fract_x
_atom_site_fract_y
_atom_site_fract_z
C1 C 6.316085440359E-03 2.024541342703E-01 -2.975458657297E-01
C2 C 6.684339253530E-03 -1.847911421058E-01 2.322809661645E-01
C3 C -4.082842476877E-03 -3.485586729631E-01 -1.514413270369E-01
H4 H 4.059771955579E-01 9.402280444205E-02 9.402280444205E-02
H5 H 6.560576088768E-03 2.199294744090E-01 -1.335600556548E-01
O6 O 2.451507935314E-03 3.297648260219E-01 -9.317074180996E-02
O7 O -4.957693879089E-02 -4.504230612091E-01 -4.957693879089E-02
O8 O 4.329056107146E-01 -6.709438928545E-02 -6.709438928545E-02
Hf9 Hf 3.429160343431E-22 3.809796454315E-01 0.000000000000E+00

