data_Hf-UiO-66
_symmetry_space_group_name_H-M 'F -4 3 M'
_space_group_IT_number         216
_cell_length_a                 20.43794522
_cell_length_b                 20.43794522
_cell_length_c                 20.43794522
_cell_angle_alpha              90.000000
_cell_angle_beta               90.000000
_cell_angle_gamma              90.000000
loop_
_atom_site_label
_atom_site_type_symbol
_atom_site_fract_x
_atom_site_fract_y
_atom_site_fract_z
C1 C 8.403530195480E-03 -2.974234226081E-01 2.025765773919E-01
C2 C 9.056720161826E-03 -1.840871818663E-01 2.318648917147E-01
C3 C -4.877206012459E-03 1.515606014597E-01 3.484393985403E-01
H4 H -9.484975552283E-02 9.484975552283E-02 -4.051502444772E-01
H5 H 8.785420767798E-03 2.198934067996E-01 -1.322910960152E-01
O6 O 2.643105366326E-03 3.291493033828E-01 -9.298151368466E-02
O7 O 4.499589248097E-01 5.004107519032E-02 -5.004107519032E-02
O8 O -6.768837485341E-02 4.323116251466E-01 -6.768837485341E-02
Hf9 Hf 0.000000000000E+00 3.804450314439E-01 0.000000000000E+00

