data_Hf-UiO-66
_symmetry_space_group_name_H-M 'F -4 3 M'
_space_group_IT_number         216
_cell_length_a                 20.40768128
_cell_length_b                 20.40768128
_cell_length_c                 20.40768128
_cell_angle_alpha              90.000000
_cell_angle_beta               90.000000
_cell_angle_gamma              90.000000
loop_
_atom_site_label
_atom_site_type_symbol
_atom_site_fract_x
_atom_site_fract_y
_atom_site_fract_z
C1 C 8.900389656712E-03 -2.974043072979E-01 2.025956927021E-01
C2 C 9.620827756904E-03 -1.839727867014E-01 2.317978098474E-01
C3 C -5.056991881485E-03 1.515815013639E-01 3.484184986361E-01
H4 H -9.498014058987E-02 9.498014058987E-02 -4.050198594101E-01
H5 H 9.313302054580E-03 2.198861574400E-01 -1.320859260791E-01
O6 O 2.676292830470E-03 3.290435176416E-01 -9.295618902260E-02
O7 O 4.498786642715E-01 5.012133572850E-02 -5.012133572850E-02
O8 O -6.778047326876E-02 4.322195267312E-01 -6.778047326876E-02
Hf9 Hf 0.000000000000E+00 3.803589765555E-01 0.000000000000E+00

