data_Hf-UiO-66
_symmetry_space_group_name_H-M 'F -4 3 M'
_space_group_IT_number         216
_cell_length_a                 20.37735200
_cell_length_b                 20.37735200
_cell_length_c                 20.37735200
_cell_angle_alpha              90.000000
_cell_angle_beta               90.000000
_cell_angle_gamma              90.000000
loop_
_atom_site_label
_atom_site_type_symbol
_atom_site_fract_x
_atom_site_fract_y
_atom_site_fract_z
C1 C 9.503918644983E-03 -2.973856883622E-01 2.026143116378E-01
C2 C 1.031103359880E-02 -1.838592499339E-01 2.317320358676E-01
C3 C -5.271637026283E-03 1.516047715538E-01 3.483952284462E-01
H4 H -9.511261974818E-02 9.511261974818E-02 -4.048873802518E-01
H5 H 9.960520568873E-03 2.198809736368E-01 -1.318813357942E-01
O6 O 2.713112888714E-03 3.289349111514E-01 -9.293495356669E-02
O7 O -5.020440366336E-02 5.020440366336E-02 4.497955963366E-01
O8 O -6.787454916545E-02 4.321254508345E-01 -6.787454916545E-02
Hf9 Hf 0.000000000000E+00 3.802705993314E-01 2.306500749007E-17

