data_Hf-UiO-66
_symmetry_space_group_name_H-M 'F -4 3 M'
_space_group_IT_number         216
_cell_length_a                 20.34742736
_cell_length_b                 20.34742736
_cell_length_c                 20.34742736
_cell_angle_alpha              90.000000
_cell_angle_beta               90.000000
_cell_angle_gamma              90.000000
loop_
_atom_site_label
_atom_site_type_symbol
_atom_site_fract_x
_atom_site_fract_y
_atom_site_fract_z
C1 C 1.012040523049E-02 2.026313752537E-01 -2.973686247463E-01
C2 C 1.101403008735E-02 -1.837467428698E-01 2.316668152871E-01
C3 C -5.487084476499E-03 -3.483723952704E-01 -1.516276047296E-01
H4 H 4.047592984558E-01 9.524070154417E-02 9.524070154417E-02
H5 H 1.061919287412E-02 2.198713254834E-01 -1.316798008143E-01
O6 O 2.742792981190E-03 3.288247454869E-01 -9.291503848870E-02
O7 O -5.029077588571E-02 -4.497092241143E-01 -5.029077588571E-02
O8 O 4.320357613985E-01 -6.796423860147E-02 -6.796423860147E-02
Hf9 Hf 4.130187860277E-21 3.801848070759E-01 0.000000000000E+00

