data_Hf-UiO-66
_symmetry_space_group_name_H-M 'F -4 3 M'
_space_group_IT_number         216
_cell_length_a                 20.46880031
_cell_length_b                 20.46880031
_cell_length_c                 20.46880031
_cell_angle_alpha              90.000000
_cell_angle_beta               90.000000
_cell_angle_gamma              90.000000
loop_
_atom_site_label
_atom_site_type_symbol
_atom_site_fract_x
_atom_site_fract_y
_atom_site_fract_z
C1 C 7.908885370783E-03 2.025571690778E-01 -2.974428309222E-01
C2 C 8.486697631386E-03 -1.842034327935E-01 2.319325595151E-01
C3 C -4.698229493187E-03 -3.484602556487E-01 -1.515397443513E-01
H4 H 4.052878050023E-01 9.471219499773E-02 9.471219499773E-02
H5 H 8.255042546297E-03 2.199028527073E-01 -1.324991427611E-01
O6 O 2.608958629979E-03 3.292575033763E-01 -9.300830744803E-02
O7 O -4.996024334205E-02 -4.500397566579E-01 -4.996024334205E-02
O8 O 4.324104193871E-01 -6.758958061294E-02 -6.758958061294E-02
Hf9 Hf 1.982805286957E-21 3.805339826915E-01 0.000000000000E+00

