data_Hf-UiO-66
_symmetry_space_group_name_H-M 'F -4 3 M'
_space_group_IT_number         216
_cell_length_a                 20.31713307
_cell_length_b                 20.31713307
_cell_length_c                 20.31713307
_cell_angle_alpha              90.000000
_cell_angle_beta               90.000000
_cell_angle_gamma              90.000000
loop_
_atom_site_label
_atom_site_type_symbol
_atom_site_fract_x
_atom_site_fract_y
_atom_site_fract_z
C1 C 1.087977852906E-02 2.026491702091E-01 -2.973508297909E-01
C2 C 1.188221145547E-02 -1.836313749720E-01 2.316001576613E-01
C3 C -5.750810856934E-03 -3.483445404610E-01 -1.516554595390E-01
H4 H 4.046323599787E-01 9.536764002126E-02 9.536764002126E-02
H5 H 1.143427858601E-02 2.198613302033E-01 -1.314739368759E-01
O6 O 2.781151902067E-03 3.287082786581E-01 -9.290072343222E-02
O7 O -5.038653780321E-02 -4.496134621968E-01 -5.038653780321E-02
O8 O 4.319476596731E-01 -6.805234032690E-02 -6.805234032690E-02
Hf9 Hf 4.851942102634E-21 3.800981154969E-01 0.000000000000E+00

