data_model
_symmetry_space_group_name_H-M 'P 6 2 2'
_space_group_IT_number         177
_cell_length_a                 16.77762661
_cell_length_b                 16.77762661
_cell_length_c                 4.95939268
_cell_angle_alpha              90.000000
_cell_angle_beta               90.000000
_cell_angle_gamma              120.000000
loop_
_atom_site_label
_atom_site_type_symbol
_atom_site_fract_x
_atom_site_fract_y
_atom_site_fract_z
La1 La 3.333333333333E-01 -3.333333333333E-01 0.000000000000E+00
O2 O 2.392789587651E-01 -4.624185703924E-01 2.944882438768E-01
C3 C 1.967943757574E-01 3.935887515140E-01 -5.000000000000E-01
C4 C 9.987811888700E-02 1.997562377736E-01 -5.000000000000E-01
C5 C 1.677067053979E-01 2.491313656028E-01 -3.043128578699E-01
C6 C 2.479238663705E-01 4.958477327400E-01 -5.000000000000E-01
C7 C 2.144961525558E-01 3.450107586977E-01 -3.002759135041E-01
C8 C 4.873940940389E-02 9.747881880758E-02 -5.000000000000E-01
H9 H 1.846876215315E-01 2.110039099749E-01 -1.598795435174E-01
H10 H 2.654283977305E-01 3.837609532105E-01 -1.449101083110E-01

