data_model
_symmetry_space_group_name_H-M 'P 6/M M M'
_space_group_IT_number         191
_cell_length_a                 16.44592627
_cell_length_b                 16.44592626
_cell_length_c                 5.89311956
_cell_angle_alpha              90.000000
_cell_angle_beta               90.000000
_cell_angle_gamma              120.000000
loop_
_atom_site_label
_atom_site_type_symbol
_atom_site_fract_x
_atom_site_fract_y
_atom_site_fract_z
La1 La -3.333333333333E-01 3.333333333333E-01 0.000000000000E+00
O2 O -2.731830808060E-01 4.536338383869E-01 -3.049594586681E-01
C3 C -2.003112959214E-01 -4.006225918436E-01 5.000000000000E-01
C4 C -2.527663068074E-01 4.944673863842E-01 5.000000000000E-01
C5 C -1.015020195698E-01 -2.030040391400E-01 5.000000000000E-01
C6 C -4.938501539759E-02 -9.877003079537E-02 5.000000000000E-01
C7 C -3.507470003294E-01 -1.753735001647E-01 -2.956452889649E-01
C8 C -2.529446603871E-01 -1.264723301936E-01 -2.957348486356E-01
H9 H -3.915647943857E-01 -1.957823971929E-01 -1.402017504913E-01
H10 H -2.129170289811E-01 -1.064585144905E-01 -1.388708455361E-01

