data_Ce-UiO-66
_symmetry_space_group_name_H-M 'F -4 3 M'
_space_group_IT_number         216
_cell_length_a                 21.3567
_cell_length_b                 21.3567
_cell_length_c                 21.3567
_cell_angle_alpha              90.000000
_cell_angle_beta               90.000000
_cell_angle_gamma              90.000000
loop_
_atom_site_type_symbol
_atom_site_fract_x
_atom_site_fract_y
_atom_site_fract_z
Ce 1.237264936459E-01  1.098422087944E-17  1.098426473880E-17
O 6.881686490750E-02  6.881686490750E-02  6.881686490750E-02
O 5.000993940546E-02  5.000993940546E-02 -5.000993940546E-02
O 1.725867693850E-01 -2.941230388592E-03  9.857692350969E-02
C 2.041760364722E-01 -5.797331324908E-03  2.041760364722E-01
C 2.671543280008E-01 -6.099816050677E-03  1.870087206044E-01
C 1.549513565829E-01 -4.136599980991E-03  1.549513565829E-01
H 2.789882995220E-01 -6.052069212793E-03  1.375082492359E-01
H 9.488087734191E-02  9.488087734191E-02  9.488087734191E-02
