data_Ce-UiO-66
_symmetry_space_group_name_H-M 'F -4 3 M'
_space_group_IT_number         216
_cell_length_a                 21.3198
_cell_length_b                 21.3198
_cell_length_c                 21.3198
_cell_angle_alpha              90.000000
_cell_angle_beta               90.000000
_cell_angle_gamma              90.000000
loop_
_atom_site_type_symbol
_atom_site_fract_x
_atom_site_fract_y
_atom_site_fract_z
Ce 1.238298178280E-01  1.098416925384E-17  1.098426473880E-17
O 6.896639337130E-02  6.896639337130E-02  6.896639337130E-02
O 5.008204829813E-02  5.008204829813E-02 -5.008204829813E-02
O 1.726824648287E-01 -3.040155943316E-03  9.852947129011E-02
C 2.041942855728E-01 -6.119384739693E-03  2.041942855728E-01
C 2.672280079526E-01 -6.450791250738E-03  1.868818240672E-01
C 1.549644140524E-01 -4.309635270915E-03  1.549644140524E-01
H 2.789924521532E-01 -6.390972648089E-03  1.372778630188E-01
H 9.507211851088E-02  9.507211851088E-02  9.507211851088E-02
