data_Ce-UiO-66
_symmetry_space_group_name_H-M 'F -4 3 M'
_space_group_IT_number         216
_cell_length_a                 21.2834
_cell_length_b                 21.2834
_cell_length_c                 21.2834
_cell_angle_alpha              90.000000
_cell_angle_beta               90.000000
_cell_angle_gamma              90.000000
loop_
_atom_site_type_symbol
_atom_site_fract_x
_atom_site_fract_y
_atom_site_fract_z
Ce 1.239301582503E-01  1.098409619284E-17  1.098426473880E-17
O 6.911442801783E-02  6.911442801783E-02  6.911442801783E-02
O 5.015780564545E-02  5.015780564545E-02 -5.015780564545E-02
O 1.727799380134E-01 -3.138303180989E-03  9.848335421490E-02
C 2.042132800552E-01 -6.494479980417E-03  2.042132800552E-01
C 2.673018535992E-01 -6.863986884964E-03  1.867553196471E-01
C 1.549773851865E-01 -4.498673051340E-03  1.549773851865E-01
H 2.789987547037E-01 -6.785731674825E-03  1.370493454225E-01
H 9.526170514565E-02  9.526170514565E-02  9.526170514565E-02
