data_Ce-UiO-66
_symmetry_space_group_name_H-M 'F -4 3 M'
_space_group_IT_number         216
_cell_length_a                 21.2479
_cell_length_b                 21.2479
_cell_length_c                 21.2479
_cell_angle_alpha              90.000000
_cell_angle_beta               90.000000
_cell_angle_gamma              90.000000
loop_
_atom_site_type_symbol
_atom_site_fract_x
_atom_site_fract_y
_atom_site_fract_z
Ce 1.240324906299E-01  1.098399550950E-17  1.098426473880E-17
O 6.925404659111E-02  6.925404659111E-02  6.925404659111E-02
O 5.023191973093E-02  5.023191973093E-02 -5.023191973093E-02
O 1.728805736281E-01 -3.227928061933E-03  9.844209845692E-02
C 2.042298217592E-01 -6.943703478702E-03  2.042298217592E-01
C 2.673728762047E-01 -7.350748129067E-03  1.866328975888E-01
C 1.549875522467E-01 -4.713166885470E-03  1.549875522467E-01
H 2.790076776041E-01 -7.236227048649E-03  1.368292491128E-01
H 9.544229888042E-02  9.544229888042E-02  9.544229888042E-02
