data_Ce-UiO-66
_symmetry_space_group_name_H-M 'F -4 3 M'
_space_group_IT_number         216
_cell_length_a                 21.39441227
_cell_length_b                 21.39441227
_cell_length_c                 21.39441227
_cell_angle_alpha              90.000000
_cell_angle_beta               90.000000
_cell_angle_gamma              90.000000
loop_
_atom_site_type_symbol
_atom_site_fract_x
_atom_site_fract_y
_atom_site_fract_z
Ce 1.236220394911E-01  1.098426473880E-17  1.098426473880E-17
O 6.866505021808E-02  6.866505021808E-02  6.866505021808E-02
O 4.993372370803E-02  4.993372370803E-02 -4.993372370803E-02
O 1.724897359134E-01 -2.839678950349E-03  9.862687402910E-02
C 2.041578123968E-01 -5.491969853574E-03  2.041578123968E-01
C 2.670789990820E-01 -5.767186699426E-03  1.871382474180E-01
C 1.549391021685E-01 -3.969231780240E-03  1.549391021685E-01
H 2.789813661547E-01 -5.731975014214E-03  1.377427661751E-01
H 9.468644937183E-02  9.468644937183E-02  9.468644937183E-02
