data_Ce-UiO-66
_symmetry_space_group_name_H-M 'F -4 3 M'
_space_group_IT_number         216
_cell_length_a                 21.1782
_cell_length_b                 21.1782
_cell_length_c                 21.1782
_cell_angle_alpha              90.000000
_cell_angle_beta               90.000000
_cell_angle_gamma              90.000000
loop_
_atom_site_type_symbol
_atom_site_fract_x
_atom_site_fract_y
_atom_site_fract_z
Ce 1.242273284836E-01  1.098374171335E-17  1.098426473880E-17
O 6.953042003307E-02  6.953042003307E-02  6.953042003307E-02
O 5.040247064355E-02  5.040247064355E-02 -5.040247064355E-02
O 1.730859399247E-01 -3.416579479446E-03  9.836855538228E-02
C 2.042683224873E-01 -7.957496076790E-03  2.042683224873E-01
C 2.675155698985E-01 -8.477392477939E-03  1.863883206476E-01
C 1.550199279177E-01 -5.169640819256E-03  1.550199279177E-01
H 2.790199386402E-01 -8.301168105880E-03  1.363891767508E-01
H 9.579948366540E-02  9.579948366540E-02  9.579948366540E-02
