data_Ce-UiO-66
_symmetry_space_group_name_H-M 'F -4 3 M'
_space_group_IT_number         216
_cell_length_a                 21.1437
_cell_length_b                 21.1437
_cell_length_c                 21.1437
_cell_angle_alpha              90.000000
_cell_angle_beta               90.000000
_cell_angle_gamma              90.000000
loop_
_atom_site_type_symbol
_atom_site_fract_x
_atom_site_fract_y
_atom_site_fract_z
Ce 1.243268721026E-01  1.098357326385E-17  1.098426473880E-17
O 6.966548131313E-02  6.966548131313E-02  6.966548131313E-02
O 5.048977697749E-02  5.048977697749E-02 -5.048977697749E-02
O 1.731899785534E-01 -3.512068984883E-03  9.833649005582E-02
C 2.042863354557E-01 -8.567247715284E-03  2.042863354557E-01
C 2.675852462916E-01 -9.158399129563E-03  1.862677272915E-01
C 1.550381652721E-01 -5.430550704573E-03  1.550381652721E-01
H 2.790271971019E-01 -8.944522161824E-03  1.361724409427E-01
H 9.597470994473E-02  9.597470994473E-02  9.597470994473E-02
