data_Ce-UiO-66
_symmetry_space_group_name_H-M 'F -4 3 M'
_space_group_IT_number         216
_cell_length_a                 21.1091
_cell_length_b                 21.1091
_cell_length_c                 21.1091
_cell_angle_alpha              90.000000
_cell_angle_beta               90.000000
_cell_angle_gamma              90.000000
loop_
_atom_site_type_symbol
_atom_site_fract_x
_atom_site_fract_y
_atom_site_fract_z
Ce 1.244266689576E-01  1.098332595596E-17  1.098426473880E-17
O 6.980627581297E-02  6.980627581297E-02  6.980627581297E-02
O 5.057361173092E-02  5.057361173092E-02 -5.057361173092E-02
O 1.733009962516E-01 -3.627587482354E-03  9.831059022897E-02
C 2.043049725657E-01 -9.381168141960E-03  2.043049725657E-01
C 2.676557641899E-01 -1.007133063489E-02  1.861457854322E-01
C 1.550599742656E-01 -5.770438948070E-03  1.550599742656E-01
H 2.790351605008E-01 -9.805925007316E-03  1.359539649282E-01
H 9.615617862020E-02  9.615617862020E-02  9.615617862020E-02
