data_Ce-UiO-66
_symmetry_space_group_name_H-M 'F -4 3 M'
_space_group_IT_number         216
_cell_length_a                 21.0743
_cell_length_b                 21.0743
_cell_length_c                 21.0743
_cell_angle_alpha              90.000000
_cell_angle_beta               90.000000
_cell_angle_gamma              90.000000
loop_
_atom_site_type_symbol
_atom_site_fract_x
_atom_site_fract_y
_atom_site_fract_z
Ce 1.245259871982E-01  1.098308054386E-17  1.098426473880E-17
O 6.993530261940E-02  6.993530261940E-02  6.993530261940E-02
O 5.069292080339E-02  5.069292080339E-02 -5.069292080339E-02
O 1.734140704187E-01 -3.724177041006E-03  9.828073233610E-02
C 2.043223220410E-01 -1.018325482209E-02  2.043223220410E-01
C 2.677263097217E-01 -1.097992250042E-02  1.860226879407E-01
C 1.550791405285E-01 -6.090960246476E-03  1.550791405285E-01
H 2.790442856354E-01 -1.066052765093E-02  1.357337454487E-01
H 9.632592138550E-02  9.632592138550E-02  9.632592138550E-02
