data_Ce-UiO-66
_symmetry_space_group_name_H-M 'F -4 3 M'
_space_group_IT_number         216
_cell_length_a                 21.2132
_cell_length_b                 21.2132
_cell_length_c                 21.2132
_cell_angle_alpha              90.000000
_cell_angle_beta               90.000000
_cell_angle_gamma              90.000000
loop_
_atom_site_type_symbol
_atom_site_fract_x
_atom_site_fract_y
_atom_site_fract_z
Ce 1.241258965208E-01  1.098389044655E-17  1.098426473880E-17
O 6.939281275671E-02  6.939281275671E-02  6.939281275671E-02
O 5.030973190809E-02  5.030973190809E-02 -5.030973190809E-02
O 1.729826382652E-01 -3.311445795190E-03  9.840589561341E-02
C 2.042498219079E-01 -7.394415554520E-03  2.042498219079E-01
C 2.674442755402E-01 -7.849942403792E-03  1.865111781501E-01
C 1.550045322898E-01 -4.916036856341E-03  1.550045322898E-01
H 2.790136983051E-01 -7.705345117291E-03  1.366101670204E-01
H 9.562104089095E-02  9.562104089095E-02  9.562104089095E-02
