data_Ce-UiO-66
_symmetry_space_group_name_H-M 'F -4 3 M'
_space_group_IT_number         216
_cell_length_a                 21.0379
_cell_length_b                 21.0379
_cell_length_c                 21.0379
_cell_angle_alpha              90.000000
_cell_angle_beta               90.000000
_cell_angle_gamma              90.000000
loop_
_atom_site_type_symbol
_atom_site_fract_x
_atom_site_fract_y
_atom_site_fract_z
Ce 1.246406140639E-01  1.098269184492E-17  1.098426473880E-17
O 7.007178286991E-02  7.007178286991E-02  7.007178286991E-02
O 5.080129975936E-02  5.080129975936E-02 -5.080129975936E-02
O 1.735414991486E-01 -3.853869699645E-03  9.826530454823E-02
C 2.043385323923E-01 -1.136713173574E-02  2.043385323923E-01
C 2.677990300238E-01 -1.231305032848E-02  1.858946608063E-01
C 1.551090258488E-01 -6.557576879127E-03  1.551090258488E-01
H 2.790552326869E-01 -1.191297157645E-02  1.355050229043E-01
H 9.650597113271E-02  9.650597113271E-02  9.650597113271E-02
