data ABW
_chemical_name_common		'ABW'
_cell_length_a		14.21244332
_cell_length_b		14.21244332
_cell_length_c		14.21244332
_cell_angle_alpha		91.997677
_cell_angle_beta		136.608720
_cell_angle_gamma		103.795773
_space group_name_H-M_alt		'P 1'
_space_group_IT_number		1

loop_
	_atom_site_label
	_atom_site_type_symbol
	_atom_site_fract_x
	_atom_site_fract_y
	_atom_site_fract_z
	O1	O	-1.988500000000E-01	-7.385000000000E-02	-1.250000000000E-01
	O2	O	1.988500000000E-01	7.385000000000E-02	1.250000000000E-01
	O3	O	2.500000000000E-01	-9.500000000000E-02	-3.450000000000E-01
	O4	O	-4.251217707100E-17	9.500000000000E-02	9.500000000000E-02
	O5	O	2.500000000000E-01	9.500000000000E-02	-1.550000000000E-01
	O6	O	7.807031977857E-18	-9.500000000000E-02	-9.500000000000E-02
	O7	O	2.500000000000E-01	2.500000000000E-01	2.500000000000E-01
	O8	O	2.500000000000E-01	-2.775557561563E-17	-2.775557561563E-17
	Si9	Si	-1.746500000000E-01	-1.282500000000E-01	-2.036000000000E-01
	Si10	Si	-1.746500000000E-01	2.895000000000E-02	-4.640000000000E-02
	Si11	Si	1.746500000000E-01	-2.895000000000E-02	4.640000000000E-02
	Si12	Si	1.746500000000E-01	1.282500000000E-01	2.036000000000E-01
	O13	O	-3.011500000000E-01	7.385000000000E-02	1.250000000000E-01
	O14	O	-3.011500000000E-01	7.385000000000E-02	-3.750000000000E-01
	O15	O	-3.011500000000E-01	-4.261500000000E-01	1.250000000000E-01
	O16	O	-3.011500000000E-01	-4.261500000000E-01	-3.750000000000E-01
	O17	O	-1.988500000000E-01	4.261500000000E-01	-1.250000000000E-01
	O18	O	2.500000000000E-01	-9.500000000000E-02	1.550000000000E-01
	O19	O	2.500000000000E-01	4.050000000000E-01	-3.450000000000E-01
	O20	O	2.500000000000E-01	4.050000000000E-01	1.550000000000E-01
	O21	O	-2.500000000000E-01	-9.500000000000E-02	-3.450000000000E-01
	O22	O	-2.500000000000E-01	-9.500000000000E-02	1.550000000000E-01
	O23	O	-2.500000000000E-01	4.050000000000E-01	-3.450000000000E-01
	O24	O	-2.500000000000E-01	4.050000000000E-01	1.550000000000E-01
	O25	O	-1.988500000000E-01	4.261500000000E-01	3.750000000000E-01
	O26	O	-5.551115123126E-17	9.500000000000E-02	-4.050000000000E-01
	O27	O	5.551115123126E-17	-4.050000000000E-01	9.500000000000E-02
	O28	O	-4.472818582120E-17	-4.050000000000E-01	-4.050000000000E-01
	O29	O	-5.000000000000E-01	9.500000000000E-02	9.500000000000E-02
	O30	O	-5.000000000000E-01	9.500000000000E-02	-4.050000000000E-01
	O31	O	-5.000000000000E-01	-4.050000000000E-01	9.500000000000E-02
	O32	O	-5.000000000000E-01	-4.050000000000E-01	-4.050000000000E-01
	O33	O	3.011500000000E-01	-7.385000000000E-02	-1.250000000000E-01
	O34	O	2.500000000000E-01	9.500000000000E-02	3.450000000000E-01
	O35	O	2.500000000000E-01	-4.050000000000E-01	-1.550000000000E-01
	O36	O	2.500000000000E-01	-4.050000000000E-01	3.450000000000E-01
	O37	O	-2.500000000000E-01	9.500000000000E-02	-1.550000000000E-01
	O38	O	-2.500000000000E-01	9.500000000000E-02	3.450000000000E-01
	O39	O	-2.500000000000E-01	-4.050000000000E-01	-1.550000000000E-01
	O40	O	-2.500000000000E-01	-4.050000000000E-01	3.450000000000E-01
	O41	O	3.011500000000E-01	-7.385000000000E-02	3.750000000000E-01
	O42	O	5.551115123126E-17	-9.500000000000E-02	4.050000000000E-01
	O43	O	-5.551115123126E-17	4.050000000000E-01	-9.500000000000E-02
	O44	O	0.000000000000E+00	4.050000000000E-01	4.050000000000E-01
	O45	O	-5.000000000000E-01	-9.500000000000E-02	-9.500000000000E-02
	O46	O	5.000000000000E-01	-9.500000000000E-02	4.050000000000E-01
	O47	O	-5.000000000000E-01	4.050000000000E-01	-9.500000000000E-02
	O48	O	-5.000000000000E-01	4.050000000000E-01	4.050000000000E-01
	O49	O	3.011500000000E-01	4.261500000000E-01	-1.250000000000E-01
	O50	O	2.500000000000E-01	2.500000000000E-01	-2.500000000000E-01
	O51	O	2.500000000000E-01	-2.500000000000E-01	2.500000000000E-01
	O52	O	2.500000000000E-01	-2.500000000000E-01	-2.500000000000E-01
	O53	O	-2.500000000000E-01	2.500000000000E-01	2.500000000000E-01
	O54	O	-2.500000000000E-01	2.500000000000E-01	-2.500000000000E-01
	O55	O	-2.500000000000E-01	-2.500000000000E-01	2.500000000000E-01
	O56	O	-2.500000000000E-01	-2.500000000000E-01	-2.500000000000E-01
	O57	O	3.011500000000E-01	4.261500000000E-01	3.750000000000E-01
	O58	O	2.500000000000E-01	9.714451465470E-17	-5.000000000000E-01
	O59	O	2.500000000000E-01	-5.000000000000E-01	-5.551115123126E-17
	O60	O	2.500000000000E-01	5.000000000000E-01	5.000000000000E-01
	O61	O	-2.500000000000E-01	0.000000000000E+00	-4.163336342344E-17
	O62	O	-2.500000000000E-01	-5.551115123126E-17	-5.000000000000E-01
	O63	O	-2.500000000000E-01	5.000000000000E-01	-5.551115123126E-17
	O64	O	-2.500000000000E-01	-5.000000000000E-01	-5.000000000000E-01
	O65	O	-1.988500000000E-01	-7.385000000000E-02	3.750000000000E-01
	Si66	Si	-1.746500000000E-01	-1.282500000000E-01	2.964000000000E-01
	Si67	Si	-1.746500000000E-01	3.717500000000E-01	-2.036000000000E-01
	Si68	Si	-1.746500000000E-01	3.717500000000E-01	2.964000000000E-01
	Si69	Si	3.253500000000E-01	-1.282500000000E-01	-2.036000000000E-01
	Si70	Si	3.253500000000E-01	-1.282500000000E-01	2.964000000000E-01
	Si71	Si	3.253500000000E-01	3.717500000000E-01	-2.036000000000E-01
	Si72	Si	3.253500000000E-01	3.717500000000E-01	2.964000000000E-01
	O73	O	1.988500000000E-01	7.385000000000E-02	-3.750000000000E-01
	Si74	Si	-1.746500000000E-01	2.895000000000E-02	4.536000000000E-01
	Si75	Si	-1.746500000000E-01	-4.710500000000E-01	-4.640000000000E-02
	Si76	Si	-1.746500000000E-01	-4.710500000000E-01	4.536000000000E-01
	Si77	Si	3.253500000000E-01	2.895000000000E-02	-4.640000000000E-02
	Si78	Si	3.253500000000E-01	2.895000000000E-02	4.536000000000E-01
	Si79	Si	3.253500000000E-01	-4.710500000000E-01	-4.640000000000E-02
	Si80	Si	3.253500000000E-01	-4.710500000000E-01	4.536000000000E-01
	O81	O	1.988500000000E-01	-4.261500000000E-01	1.250000000000E-01
	Si82	Si	1.746500000000E-01	-2.895000000000E-02	-4.536000000000E-01
	Si83	Si	1.746500000000E-01	4.710500000000E-01	4.640000000000E-02
	Si84	Si	1.746500000000E-01	4.710500000000E-01	-4.536000000000E-01
	Si85	Si	-3.253500000000E-01	-2.895000000000E-02	4.640000000000E-02
	Si86	Si	-3.253500000000E-01	-2.895000000000E-02	-4.536000000000E-01
	Si87	Si	-3.253500000000E-01	4.710500000000E-01	4.640000000000E-02
	Si88	Si	-3.253500000000E-01	4.710500000000E-01	-4.536000000000E-01
	O89	O	1.988500000000E-01	-4.261500000000E-01	-3.750000000000E-01
	Si90	Si	1.746500000000E-01	1.282500000000E-01	-2.964000000000E-01
	Si91	Si	1.746500000000E-01	-3.717500000000E-01	2.036000000000E-01
	Si92	Si	1.746500000000E-01	-3.717500000000E-01	-2.964000000000E-01
	Si93	Si	-3.253500000000E-01	1.282500000000E-01	2.036000000000E-01
	Si94	Si	-3.253500000000E-01	1.282500000000E-01	-2.964000000000E-01
	Si95	Si	-3.253500000000E-01	-3.717500000000E-01	2.036000000000E-01
	Si96	Si	-3.253500000000E-01	-3.717500000000E-01	-2.964000000000E-01
