data ACO
_chemical_name_common		'ACO'
_cell_length_a		17.15596325
_cell_length_b		17.15596325
_cell_length_c		8.57798162
_cell_angle_alpha		109.471221
_cell_angle_beta		109.471221
_cell_angle_gamma		109.471221
_space group_name_H-M_alt		'P 1'
_space_group_IT_number		1

loop_
	_atom_site_label
	_atom_site_type_symbol
	_atom_site_fract_x
	_atom_site_fract_y
	_atom_site_fract_z
	O1	O	2.500000000000E-01	2.500000000000E-01	-5.000000000000E-01
	O2	O	0.000000000000E+00	1.110223024625E-16	-5.000000000000E-01
	O3	O	2.500000000000E-01	-2.775557561563E-17	-5.551115123126E-17
	O4	O	0.000000000000E+00	2.500000000000E-01	1.942890293094E-16
	O5	O	9.385000000000E-02	9.385000000000E-02	3.754000000000E-01
	O6	O	-9.385000000000E-02	-9.385000000000E-02	-3.754000000000E-01
	O7	O	-9.385000000000E-02	9.385000000000E-02	0.000000000000E+00
	O8	O	9.385000000000E-02	-9.385000000000E-02	0.000000000000E+00
	O9	O	1.877000000000E-01	9.385000000000E-02	1.877000000000E-01
	O10	O	9.385000000000E-02	1.877000000000E-01	1.877000000000E-01
	O11	O	0.000000000000E+00	9.385000000000E-02	-1.877000000000E-01
	O12	O	-9.385000000000E-02	-1.877000000000E-01	-1.877000000000E-01
	O13	O	-1.877000000000E-01	-9.385000000000E-02	-1.877000000000E-01
	O14	O	9.385000000000E-02	0.000000000000E+00	-1.877000000000E-01
	O15	O	0.000000000000E+00	-9.385000000000E-02	1.877000000000E-01
	O16	O	-9.385000000000E-02	0.000000000000E+00	1.877000000000E-01
	Si17	Si	1.564000000000E-01	1.564000000000E-01	3.128000000000E-01
	Si18	Si	0.000000000000E+00	-4.163336342344E-17	-3.128000000000E-01
	Si19	Si	-1.564000000000E-01	4.163336342344E-17	8.326672684689E-17
	Si20	Si	0.000000000000E+00	-1.564000000000E-01	-8.326672684689E-17
	Si21	Si	-1.564000000000E-01	-1.564000000000E-01	-3.128000000000E-01
	Si22	Si	1.387778780781E-17	0.000000000000E+00	3.128000000000E-01
	Si23	Si	-1.387778780781E-17	1.564000000000E-01	-1.110223024625E-16
	Si24	Si	1.564000000000E-01	0.000000000000E+00	1.110223024625E-16
	O25	O	-5.000000000000E-01	1.110223024625E-16	-5.000000000000E-01
	O26	O	-9.385000000000E-02	-4.061500000000E-01	0.000000000000E+00
	O27	O	4.061500000000E-01	9.385000000000E-02	0.000000000000E+00
	O28	O	4.061500000000E-01	-4.061500000000E-01	0.000000000000E+00
	O29	O	-5.000000000000E-01	-5.000000000000E-01	-5.000000000000E-01
	O30	O	9.385000000000E-02	4.061500000000E-01	0.000000000000E+00
	O31	O	-4.061500000000E-01	-9.385000000000E-02	0.000000000000E+00
	O32	O	-4.061500000000E-01	4.061500000000E-01	0.000000000000E+00
	O33	O	-2.500000000000E-01	2.500000000000E-01	-5.000000000000E-01
	O34	O	1.877000000000E-01	-4.061500000000E-01	1.877000000000E-01
	O35	O	-3.123000000000E-01	9.385000000000E-02	1.877000000000E-01
	O36	O	-3.123000000000E-01	-4.061500000000E-01	1.877000000000E-01
	O37	O	2.500000000000E-01	-5.000000000000E-01	-1.665334536938E-16
	O38	O	9.385000000000E-02	-3.123000000000E-01	1.877000000000E-01
	O39	O	-4.061500000000E-01	1.877000000000E-01	1.877000000000E-01
	O40	O	-4.061500000000E-01	-3.123000000000E-01	1.877000000000E-01
	O41	O	-2.500000000000E-01	-9.714451465470E-17	-1.942890293094E-16
	O42	O	0.000000000000E+00	-4.061500000000E-01	-1.877000000000E-01
	O43	O	-5.000000000000E-01	9.385000000000E-02	-1.877000000000E-01
	O44	O	-5.000000000000E-01	-4.061500000000E-01	-1.877000000000E-01
	O45	O	-2.500000000000E-01	5.000000000000E-01	-4.440892098501E-16
	O46	O	-9.385000000000E-02	3.123000000000E-01	-1.877000000000E-01
	O47	O	4.061500000000E-01	-1.877000000000E-01	-1.877000000000E-01
	O48	O	4.061500000000E-01	3.123000000000E-01	-1.877000000000E-01
	O49	O	-2.500000000000E-01	-2.500000000000E-01	-5.000000000000E-01
	O50	O	-1.877000000000E-01	4.061500000000E-01	-1.877000000000E-01
	O51	O	3.123000000000E-01	-9.385000000000E-02	-1.877000000000E-01
	O52	O	3.123000000000E-01	4.061500000000E-01	-1.877000000000E-01
	O53	O	0.000000000000E+00	-2.500000000000E-01	1.110223024625E-16
	O54	O	9.385000000000E-02	-5.000000000000E-01	-1.877000000000E-01
	O55	O	-4.061500000000E-01	0.000000000000E+00	-1.877000000000E-01
	O56	O	-4.061500000000E-01	-5.000000000000E-01	-1.877000000000E-01
	O57	O	-5.000000000000E-01	2.500000000000E-01	1.665334536938E-16
	O58	O	0.000000000000E+00	4.061500000000E-01	1.877000000000E-01
	O59	O	-5.000000000000E-01	-9.385000000000E-02	1.877000000000E-01
	O60	O	-5.000000000000E-01	4.061500000000E-01	1.877000000000E-01
	O61	O	-5.000000000000E-01	-2.500000000000E-01	2.220446049250E-16
	O62	O	-9.385000000000E-02	-5.000000000000E-01	1.877000000000E-01
	O63	O	4.061500000000E-01	0.000000000000E+00	1.877000000000E-01
	O64	O	4.061500000000E-01	-5.000000000000E-01	1.877000000000E-01
	O65	O	2.500000000000E-01	-2.500000000000E-01	-5.000000000000E-01
	Si66	Si	1.564000000000E-01	-3.436000000000E-01	3.128000000000E-01
	Si67	Si	-3.436000000000E-01	1.564000000000E-01	3.128000000000E-01
	Si68	Si	-3.436000000000E-01	-3.436000000000E-01	3.128000000000E-01
	O69	O	9.385000000000E-02	-4.061500000000E-01	3.754000000000E-01
	Si70	Si	0.000000000000E+00	-5.000000000000E-01	-3.128000000000E-01
	Si71	Si	-5.000000000000E-01	-1.110223024625E-16	-3.128000000000E-01
	Si72	Si	-5.000000000000E-01	5.000000000000E-01	-3.128000000000E-01
	O73	O	-4.061500000000E-01	9.385000000000E-02	3.754000000000E-01
	Si74	Si	-1.564000000000E-01	-5.000000000000E-01	0.000000000000E+00
	Si75	Si	3.436000000000E-01	5.551115123126E-17	1.110223024625E-16
	Si76	Si	3.436000000000E-01	-5.000000000000E-01	0.000000000000E+00
	O77	O	-4.061500000000E-01	-4.061500000000E-01	3.754000000000E-01
	Si78	Si	0.000000000000E+00	3.436000000000E-01	-1.110223024625E-16
	Si79	Si	-5.000000000000E-01	-1.564000000000E-01	-2.220446049250E-16
	Si80	Si	-5.000000000000E-01	3.436000000000E-01	0.000000000000E+00
	O81	O	0.000000000000E+00	-5.000000000000E-01	-5.000000000000E-01
	Si82	Si	-1.564000000000E-01	3.436000000000E-01	-3.128000000000E-01
	Si83	Si	3.436000000000E-01	-1.564000000000E-01	-3.128000000000E-01
	Si84	Si	3.436000000000E-01	3.436000000000E-01	-3.128000000000E-01
	O85	O	-9.385000000000E-02	4.061500000000E-01	-3.754000000000E-01
	Si86	Si	0.000000000000E+00	-5.000000000000E-01	3.128000000000E-01
	Si87	Si	-5.000000000000E-01	0.000000000000E+00	3.128000000000E-01
	Si88	Si	-5.000000000000E-01	-5.000000000000E-01	3.128000000000E-01
	O89	O	4.061500000000E-01	-9.385000000000E-02	-3.754000000000E-01
	Si90	Si	-5.551115123126E-17	-3.436000000000E-01	-1.110223024625E-16
	Si91	Si	-5.000000000000E-01	1.564000000000E-01	-1.665334536938E-16
	Si92	Si	-5.000000000000E-01	-3.436000000000E-01	0.000000000000E+00
	O93	O	4.061500000000E-01	4.061500000000E-01	-3.754000000000E-01
	Si94	Si	1.564000000000E-01	-5.000000000000E-01	0.000000000000E+00
	Si95	Si	-3.436000000000E-01	0.000000000000E+00	5.551115123126E-17
	Si96	Si	-3.436000000000E-01	5.000000000000E-01	0.000000000000E+00
