data AEI
_chemical_name_common		'AEI'
_cell_length_a		9.30049431
_cell_length_b		9.30049431
_cell_length_c		18.49700000
_cell_angle_alpha		90.000000
_cell_angle_beta		90.000000
_cell_angle_gamma		94.662354
_space group_name_H-M_alt		'P 1'
_space_group_IT_number		1

loop_
	_atom_site_label
	_atom_site_type_symbol
	_atom_site_fract_x
	_atom_site_fract_y
	_atom_site_fract_z
	O1	O	4.000000000000E-04	4.000000000000E-04	1.614000000000E-01
	O2	O	-4.000000000000E-04	-4.000000000000E-04	-3.386000000000E-01
	O3	O	-4.000000000000E-04	-4.000000000000E-04	-1.614000000000E-01
	O4	O	4.000000000000E-04	4.000000000000E-04	3.386000000000E-01
	O5	O	1.887000000000E-01	-1.011000000000E-01	2.500000000000E-01
	O6	O	-1.887000000000E-01	1.011000000000E-01	-2.500000000000E-01
	O7	O	1.011000000000E-01	-1.887000000000E-01	-2.500000000000E-01
	O8	O	-1.011000000000E-01	1.887000000000E-01	2.500000000000E-01
	O9	O	2.767000000000E-01	2.630000000000E-02	1.293000000000E-01
	O10	O	-2.767000000000E-01	-2.630000000000E-02	-3.707000000000E-01
	O11	O	-2.630000000000E-02	-2.767000000000E-01	-1.293000000000E-01
	O12	O	2.630000000000E-02	2.767000000000E-01	3.707000000000E-01
	O13	O	-2.767000000000E-01	-2.630000000000E-02	-1.293000000000E-01
	O14	O	2.767000000000E-01	2.630000000000E-02	3.707000000000E-01
	O15	O	2.630000000000E-02	2.767000000000E-01	1.293000000000E-01
	O16	O	-2.630000000000E-02	-2.767000000000E-01	-3.707000000000E-01
	O17	O	1.321000000000E-01	-2.287000000000E-01	1.253000000000E-01
	O18	O	-1.321000000000E-01	2.287000000000E-01	-3.747000000000E-01
	O19	O	2.287000000000E-01	-1.321000000000E-01	-1.253000000000E-01
	O20	O	-2.287000000000E-01	1.321000000000E-01	3.747000000000E-01
	O21	O	-1.321000000000E-01	2.287000000000E-01	-1.253000000000E-01
	O22	O	1.321000000000E-01	-2.287000000000E-01	3.747000000000E-01
	O23	O	-2.287000000000E-01	1.321000000000E-01	1.253000000000E-01
	O24	O	2.287000000000E-01	-1.321000000000E-01	-3.747000000000E-01
	O25	O	-2.130000000000E-02	-3.143000000000E-01	1.160000000000E-02
	O26	O	2.130000000000E-02	3.143000000000E-01	-4.884000000000E-01
	O27	O	3.143000000000E-01	2.130000000000E-02	-1.160000000000E-02
	O28	O	-3.143000000000E-01	-2.130000000000E-02	4.884000000000E-01
	O29	O	2.130000000000E-02	3.143000000000E-01	-1.160000000000E-02
	O30	O	-2.130000000000E-02	-3.143000000000E-01	4.884000000000E-01
	O31	O	-3.143000000000E-01	-2.130000000000E-02	1.160000000000E-02
	O32	O	3.143000000000E-01	2.130000000000E-02	-4.884000000000E-01
	O33	O	-2.636000000000E-01	-2.636000000000E-01	-5.320000000000E-02
	O34	O	2.636000000000E-01	2.636000000000E-01	4.468000000000E-01
	O35	O	2.636000000000E-01	2.636000000000E-01	5.320000000000E-02
	O36	O	-2.636000000000E-01	-2.636000000000E-01	-4.468000000000E-01
	O37	O	-1.534000000000E-01	4.878000000000E-01	-7.190000000000E-02
	O38	O	1.534000000000E-01	-4.878000000000E-01	4.281000000000E-01
	O39	O	-4.878000000000E-01	1.534000000000E-01	7.190000000000E-02
	O40	O	4.878000000000E-01	-1.534000000000E-01	-4.281000000000E-01
	O41	O	1.534000000000E-01	-4.878000000000E-01	7.190000000000E-02
	O42	O	-1.534000000000E-01	4.878000000000E-01	-4.281000000000E-01
	O43	O	4.878000000000E-01	-1.534000000000E-01	-7.190000000000E-02
	O44	O	-4.878000000000E-01	1.534000000000E-01	4.281000000000E-01
	O45	O	-2.596000000000E-01	2.596000000000E-01	0.000000000000E+00
	O46	O	2.596000000000E-01	-2.596000000000E-01	-5.000000000000E-01
	O47	O	2.596000000000E-01	-2.596000000000E-01	0.000000000000E+00
	O48	O	-2.596000000000E-01	2.596000000000E-01	-5.000000000000E-01
	Si49	Si	1.495000000000E-01	-7.570000000000E-02	1.664000000000E-01
	Si50	Si	-1.495000000000E-01	7.570000000000E-02	-3.336000000000E-01
	Si51	Si	7.570000000000E-02	-1.495000000000E-01	-1.664000000000E-01
	Si52	Si	-7.570000000000E-02	1.495000000000E-01	3.336000000000E-01
	Si53	Si	-1.495000000000E-01	7.570000000000E-02	-1.664000000000E-01
	Si54	Si	1.495000000000E-01	-7.570000000000E-02	3.336000000000E-01
	Si55	Si	-7.570000000000E-02	1.495000000000E-01	1.664000000000E-01
	Si56	Si	7.570000000000E-02	-1.495000000000E-01	-3.336000000000E-01
	Si57	Si	-1.161000000000E-01	-3.417000000000E-01	-6.060000000000E-02
	Si58	Si	1.161000000000E-01	3.417000000000E-01	4.394000000000E-01
	Si59	Si	3.417000000000E-01	1.161000000000E-01	6.060000000000E-02
	Si60	Si	-3.417000000000E-01	-1.161000000000E-01	-4.394000000000E-01
	Si61	Si	1.161000000000E-01	3.417000000000E-01	6.060000000000E-02
	Si62	Si	-1.161000000000E-01	-3.417000000000E-01	-4.394000000000E-01
	Si63	Si	-3.417000000000E-01	-1.161000000000E-01	-6.060000000000E-02
	Si64	Si	3.417000000000E-01	1.161000000000E-01	4.394000000000E-01
	Si65	Si	-3.225000000000E-01	1.309000000000E-01	5.210000000000E-02
	Si66	Si	3.225000000000E-01	-1.309000000000E-01	-4.479000000000E-01
	Si67	Si	-1.309000000000E-01	3.225000000000E-01	-5.210000000000E-02
	Si68	Si	1.309000000000E-01	-3.225000000000E-01	4.479000000000E-01
	Si69	Si	3.225000000000E-01	-1.309000000000E-01	-5.210000000000E-02
	Si70	Si	-3.225000000000E-01	1.309000000000E-01	4.479000000000E-01
	Si71	Si	1.309000000000E-01	-3.225000000000E-01	5.210000000000E-02
	Si72	Si	-1.309000000000E-01	3.225000000000E-01	-4.479000000000E-01
