data AET
_chemical_name_common		'AET'
_cell_length_a		17.92015375
_cell_length_b		17.92015375
_cell_length_c		8.37400000
_cell_angle_alpha		90.000000
_cell_angle_beta		90.000000
_cell_angle_gamma		132.690533
_space group_name_H-M_alt		'P 1'
_space_group_IT_number		1

loop_
	_atom_site_label
	_atom_site_type_symbol
	_atom_site_fract_x
	_atom_site_fract_y
	_atom_site_fract_z
	O1	O	1.975000000000E-01	2.150000000000E-02	-2.500000000000E-01
	O2	O	-1.975000000000E-01	-2.150000000000E-02	2.500000000000E-01
	O3	O	-2.150000000000E-02	-1.975000000000E-01	2.500000000000E-01
	O4	O	2.150000000000E-02	1.975000000000E-01	-2.500000000000E-01
	O5	O	1.966000000000E-01	1.162000000000E-01	-4.889000000000E-01
	O6	O	-1.966000000000E-01	-1.162000000000E-01	1.110000000000E-02
	O7	O	-1.162000000000E-01	-1.966000000000E-01	4.889000000000E-01
	O8	O	1.162000000000E-01	1.966000000000E-01	-1.110000000000E-02
	O9	O	-1.966000000000E-01	-1.162000000000E-01	4.889000000000E-01
	O10	O	1.966000000000E-01	1.162000000000E-01	-1.110000000000E-02
	O11	O	1.162000000000E-01	1.966000000000E-01	-4.889000000000E-01
	O12	O	-1.162000000000E-01	-1.966000000000E-01	1.110000000000E-02
	O13	O	8.160000000000E-02	-8.160000000000E-02	-5.000000000000E-01
	O14	O	-8.160000000000E-02	8.160000000000E-02	0.000000000000E+00
	O15	O	-8.160000000000E-02	8.160000000000E-02	-5.000000000000E-01
	O16	O	8.160000000000E-02	-8.160000000000E-02	0.000000000000E+00
	O17	O	2.800000000000E-01	4.060000000000E-02	4.760000000000E-01
	O18	O	-2.800000000000E-01	-4.060000000000E-02	-2.400000000000E-02
	O19	O	-4.060000000000E-02	-2.800000000000E-01	-4.760000000000E-01
	O20	O	4.060000000000E-02	2.800000000000E-01	2.400000000000E-02
	O21	O	-2.800000000000E-01	-4.060000000000E-02	-4.760000000000E-01
	O22	O	2.800000000000E-01	4.060000000000E-02	2.400000000000E-02
	O23	O	4.060000000000E-02	2.800000000000E-01	4.760000000000E-01
	O24	O	-4.060000000000E-02	-2.800000000000E-01	-2.400000000000E-02
	O25	O	3.248000000000E-01	-1.034000000000E-01	-2.500000000000E-01
	O26	O	-3.248000000000E-01	1.034000000000E-01	2.500000000000E-01
	O27	O	1.034000000000E-01	-3.248000000000E-01	2.500000000000E-01
	O28	O	-1.034000000000E-01	3.248000000000E-01	-2.500000000000E-01
	O29	O	3.938000000000E-01	-1.522000000000E-01	-4.624000000000E-01
	O30	O	-3.938000000000E-01	1.522000000000E-01	3.760000000000E-02
	O31	O	1.522000000000E-01	-3.938000000000E-01	4.624000000000E-01
	O32	O	-1.522000000000E-01	3.938000000000E-01	-3.760000000000E-02
	O33	O	-3.938000000000E-01	1.522000000000E-01	4.624000000000E-01
	O34	O	3.938000000000E-01	-1.522000000000E-01	-3.760000000000E-02
	O35	O	-1.522000000000E-01	3.938000000000E-01	-4.624000000000E-01
	O36	O	1.522000000000E-01	-3.938000000000E-01	3.760000000000E-02
	O37	O	2.136000000000E-01	-2.136000000000E-01	-5.000000000000E-01
	O38	O	-2.136000000000E-01	2.136000000000E-01	0.000000000000E+00
	O39	O	-2.136000000000E-01	2.136000000000E-01	-5.000000000000E-01
	O40	O	2.136000000000E-01	-2.136000000000E-01	0.000000000000E+00
	O41	O	3.777000000000E-01	-2.110000000000E-02	4.641000000000E-01
	O42	O	-3.777000000000E-01	2.110000000000E-02	-3.590000000000E-02
	O43	O	2.110000000000E-02	-3.777000000000E-01	-4.641000000000E-01
	O44	O	-2.110000000000E-02	3.777000000000E-01	3.590000000000E-02
	O45	O	-3.777000000000E-01	2.110000000000E-02	-4.641000000000E-01
	O46	O	3.777000000000E-01	-2.110000000000E-02	3.590000000000E-02
	O47	O	-2.110000000000E-02	3.777000000000E-01	4.641000000000E-01
	O48	O	2.110000000000E-02	-3.777000000000E-01	-3.590000000000E-02
	O49	O	-3.858000000000E-01	2.160000000000E-01	-2.500000000000E-01
	O50	O	3.858000000000E-01	-2.160000000000E-01	2.500000000000E-01
	O51	O	-2.160000000000E-01	3.858000000000E-01	2.500000000000E-01
	O52	O	2.160000000000E-01	-3.858000000000E-01	-2.500000000000E-01
	O53	O	-3.320000000000E-01	3.320000000000E-01	-5.000000000000E-01
	O54	O	3.320000000000E-01	-3.320000000000E-01	0.000000000000E+00
	O55	O	3.320000000000E-01	-3.320000000000E-01	-5.000000000000E-01
	O56	O	-3.320000000000E-01	3.320000000000E-01	0.000000000000E+00
	O57	O	4.754000000000E-01	1.670000000000E-01	-4.546000000000E-01
	O58	O	-4.754000000000E-01	-1.670000000000E-01	4.540000000000E-02
	O59	O	-1.670000000000E-01	-4.754000000000E-01	4.546000000000E-01
	O60	O	1.670000000000E-01	4.754000000000E-01	-4.540000000000E-02
	O61	O	-4.754000000000E-01	-1.670000000000E-01	4.546000000000E-01
	O62	O	4.754000000000E-01	1.670000000000E-01	-4.540000000000E-02
	O63	O	1.670000000000E-01	4.754000000000E-01	-4.546000000000E-01
	O64	O	-1.670000000000E-01	-4.754000000000E-01	4.540000000000E-02
	O65	O	4.143000000000E-01	1.075000000000E-01	2.500000000000E-01
	O66	O	-4.143000000000E-01	-1.075000000000E-01	-2.500000000000E-01
	O67	O	-1.075000000000E-01	-4.143000000000E-01	-2.500000000000E-01
	O68	O	1.075000000000E-01	4.143000000000E-01	2.500000000000E-01
	O69	O	-1.112000000000E-01	-1.112000000000E-01	-2.500000000000E-01
	O70	O	1.112000000000E-01	1.112000000000E-01	2.500000000000E-01
	O71	O	0.000000000000E+00	0.000000000000E+00	-5.000000000000E-01
	O72	O	0.000000000000E+00	0.000000000000E+00	0.000000000000E+00
	Si73	Si	1.888000000000E-01	2.400000000000E-02	-4.407000000000E-01
	Si74	Si	-1.888000000000E-01	-2.400000000000E-02	5.930000000000E-02
	Si75	Si	-2.400000000000E-02	-1.888000000000E-01	4.407000000000E-01
	Si76	Si	2.400000000000E-02	1.888000000000E-01	-5.930000000000E-02
	Si77	Si	-1.888000000000E-01	-2.400000000000E-02	4.407000000000E-01
	Si78	Si	1.888000000000E-01	2.400000000000E-02	-5.930000000000E-02
	Si79	Si	2.400000000000E-02	1.888000000000E-01	-4.407000000000E-01
	Si80	Si	-2.400000000000E-02	-1.888000000000E-01	5.930000000000E-02
	Si81	Si	3.274000000000E-01	-1.228000000000E-01	-4.367000000000E-01
	Si82	Si	-3.274000000000E-01	1.228000000000E-01	6.330000000000E-02
	Si83	Si	1.228000000000E-01	-3.274000000000E-01	4.367000000000E-01
	Si84	Si	-1.228000000000E-01	3.274000000000E-01	-6.330000000000E-02
	Si85	Si	-3.274000000000E-01	1.228000000000E-01	4.367000000000E-01
	Si86	Si	3.274000000000E-01	-1.228000000000E-01	-6.330000000000E-02
	Si87	Si	-1.228000000000E-01	3.274000000000E-01	-4.367000000000E-01
	Si88	Si	1.228000000000E-01	-3.274000000000E-01	6.330000000000E-02
	Si89	Si	-4.093000000000E-01	2.169000000000E-01	-4.351000000000E-01
	Si90	Si	4.093000000000E-01	-2.169000000000E-01	6.490000000000E-02
	Si91	Si	-2.169000000000E-01	4.093000000000E-01	4.351000000000E-01
	Si92	Si	2.169000000000E-01	-4.093000000000E-01	-6.490000000000E-02
	Si93	Si	4.093000000000E-01	-2.169000000000E-01	4.351000000000E-01
	Si94	Si	-4.093000000000E-01	2.169000000000E-01	-6.490000000000E-02
	Si95	Si	2.169000000000E-01	-4.093000000000E-01	-4.351000000000E-01
	Si96	Si	-2.169000000000E-01	4.093000000000E-01	6.490000000000E-02
	Si97	Si	3.865000000000E-01	7.330000000000E-02	6.570000000000E-02
	Si98	Si	-3.865000000000E-01	-7.330000000000E-02	-4.343000000000E-01
	Si99	Si	-7.330000000000E-02	-3.865000000000E-01	-6.570000000000E-02
	Si100	Si	7.330000000000E-02	3.865000000000E-01	4.343000000000E-01
	Si101	Si	-3.865000000000E-01	-7.330000000000E-02	-6.570000000000E-02
	Si102	Si	3.865000000000E-01	7.330000000000E-02	4.343000000000E-01
	Si103	Si	7.330000000000E-02	3.865000000000E-01	6.570000000000E-02
	Si104	Si	-7.330000000000E-02	-3.865000000000E-01	-4.343000000000E-01
	Si105	Si	-1.065000000000E-01	-1.065000000000E-01	-4.417000000000E-01
	Si106	Si	1.065000000000E-01	1.065000000000E-01	5.830000000000E-02
	Si107	Si	1.065000000000E-01	1.065000000000E-01	4.417000000000E-01
	Si108	Si	-1.065000000000E-01	-1.065000000000E-01	-5.830000000000E-02
