data AFG
_chemical_name_common		'AFG'
_cell_length_a		12.54800000
_cell_length_b		12.54800000
_cell_length_c		20.78900000
_cell_angle_alpha		90.000000
_cell_angle_beta		90.000000
_cell_angle_gamma		120.000000
_space group_name_H-M_alt		'P 1'
_space_group_IT_number		1

loop_
	_atom_site_label
	_atom_site_type_symbol
	_atom_site_fract_x
	_atom_site_fract_y
	_atom_site_fract_z
	O1	O	-3.392000000000E-01	-3.047000000000E-01	6.060000000000E-02
	O2	O	3.392000000000E-01	3.047000000000E-01	-4.394000000000E-01
	O3	O	3.047000000000E-01	-3.450000000000E-02	6.060000000000E-02
	O4	O	3.450000000000E-02	3.392000000000E-01	6.060000000000E-02
	O5	O	-3.450000000000E-02	-3.392000000000E-01	-4.394000000000E-01
	O6	O	-3.047000000000E-01	3.450000000000E-02	-4.394000000000E-01
	O7	O	-3.450000000000E-02	3.047000000000E-01	-6.060000000000E-02
	O8	O	3.392000000000E-01	3.450000000000E-02	-6.060000000000E-02
	O9	O	-3.047000000000E-01	-3.392000000000E-01	-6.060000000000E-02
	O10	O	3.047000000000E-01	3.392000000000E-01	4.394000000000E-01
	O11	O	-3.392000000000E-01	-3.450000000000E-02	4.394000000000E-01
	O12	O	3.450000000000E-02	-3.047000000000E-01	4.394000000000E-01
	O13	O	3.392000000000E-01	3.047000000000E-01	-6.060000000000E-02
	O14	O	-3.392000000000E-01	-3.047000000000E-01	4.394000000000E-01
	O15	O	-3.047000000000E-01	3.450000000000E-02	-6.060000000000E-02
	O16	O	-3.450000000000E-02	-3.392000000000E-01	-6.060000000000E-02
	O17	O	3.450000000000E-02	3.392000000000E-01	4.394000000000E-01
	O18	O	3.047000000000E-01	-3.450000000000E-02	4.394000000000E-01
	O19	O	3.450000000000E-02	-3.047000000000E-01	6.060000000000E-02
	O20	O	-3.392000000000E-01	-3.450000000000E-02	6.060000000000E-02
	O21	O	3.047000000000E-01	3.392000000000E-01	6.060000000000E-02
	O22	O	-3.047000000000E-01	-3.392000000000E-01	-4.394000000000E-01
	O23	O	3.392000000000E-01	3.450000000000E-02	-4.394000000000E-01
	O24	O	-3.450000000000E-02	3.047000000000E-01	-4.394000000000E-01
	O25	O	-3.320000000000E-01	-3.088000000000E-01	1.868000000000E-01
	O26	O	3.320000000000E-01	3.088000000000E-01	-3.132000000000E-01
	O27	O	3.088000000000E-01	-2.320000000000E-02	1.868000000000E-01
	O28	O	2.320000000000E-02	3.320000000000E-01	1.868000000000E-01
	O29	O	-2.320000000000E-02	-3.320000000000E-01	-3.132000000000E-01
	O30	O	-3.088000000000E-01	2.320000000000E-02	-3.132000000000E-01
	O31	O	-2.320000000000E-02	3.088000000000E-01	-1.868000000000E-01
	O32	O	3.320000000000E-01	2.320000000000E-02	-1.868000000000E-01
	O33	O	-3.088000000000E-01	-3.320000000000E-01	-1.868000000000E-01
	O34	O	3.088000000000E-01	3.320000000000E-01	3.132000000000E-01
	O35	O	-3.320000000000E-01	-2.320000000000E-02	3.132000000000E-01
	O36	O	2.320000000000E-02	-3.088000000000E-01	3.132000000000E-01
	O37	O	3.320000000000E-01	3.088000000000E-01	-1.868000000000E-01
	O38	O	-3.320000000000E-01	-3.088000000000E-01	3.132000000000E-01
	O39	O	-3.088000000000E-01	2.320000000000E-02	-1.868000000000E-01
	O40	O	-2.320000000000E-02	-3.320000000000E-01	-1.868000000000E-01
	O41	O	2.320000000000E-02	3.320000000000E-01	3.132000000000E-01
	O42	O	3.088000000000E-01	-2.320000000000E-02	3.132000000000E-01
	O43	O	2.320000000000E-02	-3.088000000000E-01	1.868000000000E-01
	O44	O	-3.320000000000E-01	-2.320000000000E-02	1.868000000000E-01
	O45	O	3.088000000000E-01	3.320000000000E-01	1.868000000000E-01
	O46	O	-3.088000000000E-01	-3.320000000000E-01	-3.132000000000E-01
	O47	O	3.320000000000E-01	2.320000000000E-02	-3.132000000000E-01
	O48	O	-2.320000000000E-02	3.088000000000E-01	-3.132000000000E-01
	O49	O	2.348500000000E-01	4.697000000000E-01	1.288000000000E-01
	O50	O	-2.348500000000E-01	-4.697000000000E-01	-3.712000000000E-01
	O51	O	-4.697000000000E-01	-2.348500000000E-01	1.288000000000E-01
	O52	O	2.348500000000E-01	-2.348500000000E-01	1.288000000000E-01
	O53	O	-2.348500000000E-01	2.348500000000E-01	-3.712000000000E-01
	O54	O	4.697000000000E-01	2.348500000000E-01	-3.712000000000E-01
	O55	O	-2.348500000000E-01	-4.697000000000E-01	-1.288000000000E-01
	O56	O	-2.348500000000E-01	2.348500000000E-01	-1.288000000000E-01
	O57	O	4.697000000000E-01	2.348500000000E-01	-1.288000000000E-01
	O58	O	-4.697000000000E-01	-2.348500000000E-01	3.712000000000E-01
	O59	O	2.348500000000E-01	-2.348500000000E-01	3.712000000000E-01
	O60	O	2.348500000000E-01	4.697000000000E-01	3.712000000000E-01
	O61	O	-4.685500000000E-01	6.290000000000E-02	-3.747000000000E-01
	O62	O	4.685500000000E-01	-6.290000000000E-02	1.253000000000E-01
	O63	O	-6.290000000000E-02	4.685500000000E-01	-3.747000000000E-01
	O64	O	-4.685500000000E-01	4.685500000000E-01	-3.747000000000E-01
	O65	O	4.685500000000E-01	-4.685500000000E-01	1.253000000000E-01
	O66	O	6.290000000000E-02	-4.685500000000E-01	1.253000000000E-01
	O67	O	4.685500000000E-01	-6.290000000000E-02	3.747000000000E-01
	O68	O	4.685500000000E-01	-4.685500000000E-01	3.747000000000E-01
	O69	O	6.290000000000E-02	-4.685500000000E-01	3.747000000000E-01
	O70	O	-6.290000000000E-02	4.685500000000E-01	-1.253000000000E-01
	O71	O	-4.685500000000E-01	4.685500000000E-01	-1.253000000000E-01
	O72	O	-4.685500000000E-01	6.290000000000E-02	-1.253000000000E-01
	O73	O	1.013000000000E-01	2.026000000000E-01	2.500000000000E-01
	O74	O	-1.013000000000E-01	-2.026000000000E-01	-2.500000000000E-01
	O75	O	-2.026000000000E-01	-1.013000000000E-01	2.500000000000E-01
	O76	O	1.013000000000E-01	-1.013000000000E-01	2.500000000000E-01
	O77	O	-1.013000000000E-01	1.013000000000E-01	-2.500000000000E-01
	O78	O	2.026000000000E-01	1.013000000000E-01	-2.500000000000E-01
	O79	O	-1.342000000000E-01	-2.684000000000E-01	2.500000000000E-01
	O80	O	1.342000000000E-01	2.684000000000E-01	-2.500000000000E-01
	O81	O	2.684000000000E-01	1.342000000000E-01	2.500000000000E-01
	O82	O	-1.342000000000E-01	1.342000000000E-01	2.500000000000E-01
	O83	O	1.342000000000E-01	-1.342000000000E-01	-2.500000000000E-01
	O84	O	-2.684000000000E-01	-1.342000000000E-01	-2.500000000000E-01
	O85	O	-1.158500000000E-01	-2.317000000000E-01	4.819000000000E-01
	O86	O	1.158500000000E-01	2.317000000000E-01	-1.810000000000E-02
	O87	O	2.317000000000E-01	1.158500000000E-01	4.819000000000E-01
	O88	O	-1.158500000000E-01	1.158500000000E-01	4.819000000000E-01
	O89	O	1.158500000000E-01	-1.158500000000E-01	-1.810000000000E-02
	O90	O	-2.317000000000E-01	-1.158500000000E-01	-1.810000000000E-02
	O91	O	1.158500000000E-01	2.317000000000E-01	-4.819000000000E-01
	O92	O	1.158500000000E-01	-1.158500000000E-01	-4.819000000000E-01
	O93	O	-2.317000000000E-01	-1.158500000000E-01	-4.819000000000E-01
	O94	O	2.317000000000E-01	1.158500000000E-01	1.810000000000E-02
	O95	O	-1.158500000000E-01	1.158500000000E-01	1.810000000000E-02
	O96	O	-1.158500000000E-01	-2.317000000000E-01	1.810000000000E-02
	Si97	Si	-4.183000000000E-01	-3.294000000000E-01	1.254000000000E-01
	Si98	Si	4.183000000000E-01	3.294000000000E-01	-3.746000000000E-01
	Si99	Si	3.294000000000E-01	-8.890000000000E-02	1.254000000000E-01
	Si100	Si	8.890000000000E-02	4.183000000000E-01	1.254000000000E-01
	Si101	Si	-8.890000000000E-02	-4.183000000000E-01	-3.746000000000E-01
	Si102	Si	-3.294000000000E-01	8.890000000000E-02	-3.746000000000E-01
	Si103	Si	-8.890000000000E-02	3.294000000000E-01	-1.254000000000E-01
	Si104	Si	4.183000000000E-01	8.890000000000E-02	-1.254000000000E-01
	Si105	Si	-3.294000000000E-01	-4.183000000000E-01	-1.254000000000E-01
	Si106	Si	3.294000000000E-01	4.183000000000E-01	3.746000000000E-01
	Si107	Si	-4.183000000000E-01	-8.890000000000E-02	3.746000000000E-01
	Si108	Si	8.890000000000E-02	-3.294000000000E-01	3.746000000000E-01
	Si109	Si	4.183000000000E-01	3.294000000000E-01	-1.254000000000E-01
	Si110	Si	-4.183000000000E-01	-3.294000000000E-01	3.746000000000E-01
	Si111	Si	-3.294000000000E-01	8.890000000000E-02	-1.254000000000E-01
	Si112	Si	-8.890000000000E-02	-4.183000000000E-01	-1.254000000000E-01
	Si113	Si	8.890000000000E-02	4.183000000000E-01	3.746000000000E-01
	Si114	Si	3.294000000000E-01	-8.890000000000E-02	3.746000000000E-01
	Si115	Si	8.890000000000E-02	-3.294000000000E-01	1.254000000000E-01
	Si116	Si	-4.183000000000E-01	-8.890000000000E-02	1.254000000000E-01
	Si117	Si	3.294000000000E-01	4.183000000000E-01	1.254000000000E-01
	Si118	Si	-3.294000000000E-01	-4.183000000000E-01	-3.746000000000E-01
	Si119	Si	4.183000000000E-01	8.890000000000E-02	-3.746000000000E-01
	Si120	Si	-8.890000000000E-02	3.294000000000E-01	-3.746000000000E-01
	Si121	Si	2.466000000000E-01	-3.500000000000E-03	2.500000000000E-01
	Si122	Si	-2.466000000000E-01	3.500000000000E-03	-2.500000000000E-01
	Si123	Si	3.500000000000E-03	2.501000000000E-01	2.500000000000E-01
	Si124	Si	-2.501000000000E-01	-2.466000000000E-01	2.500000000000E-01
	Si125	Si	2.501000000000E-01	2.466000000000E-01	-2.500000000000E-01
	Si126	Si	-3.500000000000E-03	-2.501000000000E-01	-2.500000000000E-01
	Si127	Si	2.501000000000E-01	3.500000000000E-03	-2.500000000000E-01
	Si128	Si	-2.466000000000E-01	-2.501000000000E-01	-2.500000000000E-01
	Si129	Si	-3.500000000000E-03	2.466000000000E-01	-2.500000000000E-01
	Si130	Si	3.500000000000E-03	-2.466000000000E-01	2.500000000000E-01
	Si131	Si	2.466000000000E-01	2.501000000000E-01	2.500000000000E-01
	Si132	Si	-2.501000000000E-01	-3.500000000000E-03	2.500000000000E-01
	Si133	Si	2.478000000000E-01	-5.551115123126E-17	0.000000000000E+00
	Si134	Si	-2.478000000000E-01	5.551115123126E-17	5.000000000000E-01
	Si135	Si	0.000000000000E+00	2.478000000000E-01	0.000000000000E+00
	Si136	Si	-2.478000000000E-01	-2.478000000000E-01	0.000000000000E+00
	Si137	Si	2.478000000000E-01	2.478000000000E-01	5.000000000000E-01
	Si138	Si	0.000000000000E+00	-2.478000000000E-01	5.000000000000E-01
	Si139	Si	-2.478000000000E-01	5.551115123126E-17	0.000000000000E+00
	Si140	Si	2.478000000000E-01	-5.551115123126E-17	5.000000000000E-01
	Si141	Si	0.000000000000E+00	-2.478000000000E-01	0.000000000000E+00
	Si142	Si	2.478000000000E-01	2.478000000000E-01	0.000000000000E+00
	Si143	Si	-2.478000000000E-01	-2.478000000000E-01	5.000000000000E-01
	Si144	Si	0.000000000000E+00	2.478000000000E-01	5.000000000000E-01
