data AFN
_chemical_name_common		'AFN'
_cell_length_a		9.71974223
_cell_length_b		9.71974223
_cell_length_c		20.40400000
_cell_angle_alpha		77.658544
_cell_angle_beta		102.341456
_cell_angle_gamma		92.309362
_space group_name_H-M_alt		'P 1'
_space_group_IT_number		1

loop_
	_atom_site_label
	_atom_site_type_symbol
	_atom_site_fract_x
	_atom_site_fract_y
	_atom_site_fract_z
	O1	O	-3.398000000000E-01	2.360000000000E-02	1.631000000000E-01
	O2	O	2.360000000000E-02	-3.398000000000E-01	-1.631000000000E-01
	O3	O	3.398000000000E-01	-2.360000000000E-02	-1.631000000000E-01
	O4	O	-2.360000000000E-02	3.398000000000E-01	1.631000000000E-01
	O5	O	4.468000000000E-01	-8.200000000000E-02	8.775000000000E-02
	O6	O	-8.200000000000E-02	4.468000000000E-01	-8.775000000000E-02
	O7	O	-4.468000000000E-01	8.200000000000E-02	-8.775000000000E-02
	O8	O	8.200000000000E-02	-4.468000000000E-01	8.775000000000E-02
	O9	O	4.143000000000E-01	1.629000000000E-01	1.162500000000E-01
	O10	O	1.629000000000E-01	4.143000000000E-01	-1.162500000000E-01
	O11	O	-4.143000000000E-01	-1.629000000000E-01	-1.162500000000E-01
	O12	O	-1.629000000000E-01	-4.143000000000E-01	1.162500000000E-01
	O13	O	-4.206000000000E-01	1.416000000000E-01	3.320000000000E-02
	O14	O	1.416000000000E-01	-4.206000000000E-01	-3.320000000000E-02
	O15	O	4.206000000000E-01	-1.416000000000E-01	-3.320000000000E-02
	O16	O	-1.416000000000E-01	4.206000000000E-01	3.320000000000E-02
	O17	O	2.964000000000E-01	4.140000000000E-01	7.435000000000E-02
	O18	O	4.140000000000E-01	2.964000000000E-01	-7.435000000000E-02
	O19	O	-2.964000000000E-01	-4.140000000000E-01	-7.435000000000E-02
	O20	O	-4.140000000000E-01	-2.964000000000E-01	7.435000000000E-02
	O21	O	3.105000000000E-01	-3.105000000000E-01	6.125000000000E-02
	O22	O	-3.105000000000E-01	3.105000000000E-01	-6.125000000000E-02
	O23	O	-1.426000000000E-01	-1.426000000000E-01	2.500000000000E-01
	O24	O	1.426000000000E-01	1.426000000000E-01	2.500000000000E-01
	O25	O	7.250000000000E-02	-7.250000000000E-02	-1.612000000000E-01
	O26	O	-7.250000000000E-02	7.250000000000E-02	1.612000000000E-01
	O27	O	-1.478000000000E-01	-1.960000000000E-01	-1.188500000000E-01
	O28	O	-1.960000000000E-01	-1.478000000000E-01	1.188500000000E-01
	O29	O	1.478000000000E-01	1.960000000000E-01	1.188500000000E-01
	O30	O	1.960000000000E-01	1.478000000000E-01	-1.188500000000E-01
	O31	O	-2.241000000000E-01	-2.241000000000E-01	0.000000000000E+00
	O32	O	2.241000000000E-01	2.241000000000E-01	0.000000000000E+00
	Si33	Si	-2.480000000000E-01	-2.706000000000E-01	7.745000000000E-02
	Si34	Si	-2.706000000000E-01	-2.480000000000E-01	-7.745000000000E-02
	Si35	Si	2.480000000000E-01	2.706000000000E-01	-7.745000000000E-02
	Si36	Si	2.706000000000E-01	2.480000000000E-01	7.745000000000E-02
	Si37	Si	-4.746000000000E-01	6.180000000000E-02	1.007000000000E-01
	Si38	Si	6.180000000000E-02	-4.746000000000E-01	-1.007000000000E-01
	Si39	Si	4.746000000000E-01	-6.180000000000E-02	-1.007000000000E-01
	Si40	Si	-6.180000000000E-02	4.746000000000E-01	1.007000000000E-01
	Si41	Si	2.086000000000E-01	-4.406000000000E-01	4.755000000000E-02
	Si42	Si	-4.406000000000E-01	2.086000000000E-01	-4.755000000000E-02
	Si43	Si	-2.086000000000E-01	4.406000000000E-01	-4.755000000000E-02
	Si44	Si	4.406000000000E-01	-2.086000000000E-01	4.755000000000E-02
	Si45	Si	-4.860000000000E-02	-1.878000000000E-01	-1.735500000000E-01
	Si46	Si	-1.878000000000E-01	-4.860000000000E-02	1.735500000000E-01
	Si47	Si	4.860000000000E-02	1.878000000000E-01	1.735500000000E-01
	Si48	Si	1.878000000000E-01	4.860000000000E-02	-1.735500000000E-01
	O49	O	2.360000000000E-02	-3.398000000000E-01	3.369000000000E-01
	O50	O	7.250000000000E-02	-7.250000000000E-02	3.388000000000E-01
	O51	O	-4.206000000000E-01	1.416000000000E-01	-4.668000000000E-01
	O52	O	-7.250000000000E-02	7.250000000000E-02	-3.388000000000E-01
	O53	O	-4.468000000000E-01	8.200000000000E-02	4.122500000000E-01
	O54	O	-1.478000000000E-01	-1.960000000000E-01	3.811500000000E-01
	O55	O	1.416000000000E-01	-4.206000000000E-01	4.668000000000E-01
	O56	O	-1.960000000000E-01	-1.478000000000E-01	-3.811500000000E-01
	O57	O	-2.360000000000E-02	3.398000000000E-01	-3.369000000000E-01
	O58	O	1.478000000000E-01	1.960000000000E-01	-3.811500000000E-01
	O59	O	4.206000000000E-01	-1.416000000000E-01	4.668000000000E-01
	O60	O	1.960000000000E-01	1.478000000000E-01	3.811500000000E-01
	O61	O	8.200000000000E-02	-4.468000000000E-01	-4.122500000000E-01
	O62	O	-2.241000000000E-01	-2.241000000000E-01	5.000000000000E-01
	O63	O	-1.416000000000E-01	4.206000000000E-01	-4.668000000000E-01
	O64	O	2.241000000000E-01	2.241000000000E-01	5.000000000000E-01
	O65	O	-3.398000000000E-01	2.360000000000E-02	-3.369000000000E-01
	Si66	Si	-2.480000000000E-01	-2.706000000000E-01	-4.225500000000E-01
	O67	O	2.964000000000E-01	4.140000000000E-01	-4.256500000000E-01
	Si68	Si	-2.706000000000E-01	-2.480000000000E-01	4.225500000000E-01
	O69	O	4.143000000000E-01	1.629000000000E-01	-3.837500000000E-01
	Si70	Si	2.480000000000E-01	2.706000000000E-01	4.225500000000E-01
	O71	O	4.140000000000E-01	2.964000000000E-01	4.256500000000E-01
	Si72	Si	2.706000000000E-01	2.480000000000E-01	-4.225500000000E-01
	O73	O	4.468000000000E-01	-8.200000000000E-02	-4.122500000000E-01
	Si74	Si	-4.746000000000E-01	6.180000000000E-02	-3.993000000000E-01
	O75	O	-2.964000000000E-01	-4.140000000000E-01	4.256500000000E-01
	Si76	Si	6.180000000000E-02	-4.746000000000E-01	3.993000000000E-01
	O77	O	1.629000000000E-01	4.143000000000E-01	3.837500000000E-01
	Si78	Si	4.746000000000E-01	-6.180000000000E-02	3.993000000000E-01
	O79	O	-4.140000000000E-01	-2.964000000000E-01	-4.256500000000E-01
	Si80	Si	-6.180000000000E-02	4.746000000000E-01	-3.993000000000E-01
	O81	O	3.398000000000E-01	-2.360000000000E-02	3.369000000000E-01
	Si82	Si	2.086000000000E-01	-4.406000000000E-01	-4.524500000000E-01
	O83	O	3.105000000000E-01	-3.105000000000E-01	-4.387500000000E-01
	Si84	Si	-4.406000000000E-01	2.086000000000E-01	4.524500000000E-01
	O85	O	-4.143000000000E-01	-1.629000000000E-01	3.837500000000E-01
	Si86	Si	-2.086000000000E-01	4.406000000000E-01	4.524500000000E-01
	O87	O	-3.105000000000E-01	3.105000000000E-01	4.387500000000E-01
	Si88	Si	4.406000000000E-01	-2.086000000000E-01	-4.524500000000E-01
	O89	O	-8.200000000000E-02	4.468000000000E-01	4.122500000000E-01
	Si90	Si	-4.860000000000E-02	-1.878000000000E-01	3.264500000000E-01
	O91	O	-1.426000000000E-01	-1.426000000000E-01	-2.500000000000E-01
	Si92	Si	-1.878000000000E-01	-4.860000000000E-02	-3.264500000000E-01
	O93	O	-1.629000000000E-01	-4.143000000000E-01	-3.837500000000E-01
	Si94	Si	4.860000000000E-02	1.878000000000E-01	-3.264500000000E-01
	O95	O	1.426000000000E-01	1.426000000000E-01	-2.500000000000E-01
	Si96	Si	1.878000000000E-01	4.860000000000E-02	3.264500000000E-01
