data AFR
_chemical_name_common		'AFR'
_cell_length_a		22.30500000
_cell_length_b		13.56700000
_cell_length_c		6.97200000
_cell_angle_alpha		90.000000
_cell_angle_beta		90.000000
_cell_angle_gamma		90.000000
_space group_name_H-M_alt		'P 1'
_space_group_IT_number		1

loop_
	_atom_site_label
	_atom_site_type_symbol
	_atom_site_fract_x
	_atom_site_fract_y
	_atom_site_fract_z
	O1	O	3.985000000000E-01	3.737000000000E-01	3.146000000000E-01
	O2	O	-3.985000000000E-01	-3.737000000000E-01	3.146000000000E-01
	O3	O	-1.015000000000E-01	1.263000000000E-01	-3.146000000000E-01
	O4	O	1.015000000000E-01	-1.263000000000E-01	-3.146000000000E-01
	O5	O	1.015000000000E-01	1.263000000000E-01	-3.146000000000E-01
	O6	O	-1.015000000000E-01	-1.263000000000E-01	-3.146000000000E-01
	O7	O	-3.985000000000E-01	3.737000000000E-01	3.146000000000E-01
	O8	O	3.985000000000E-01	-3.737000000000E-01	3.146000000000E-01
	O9	O	2.808000000000E-01	3.623000000000E-01	3.118000000000E-01
	O10	O	-2.808000000000E-01	-3.623000000000E-01	3.118000000000E-01
	O11	O	-2.192000000000E-01	1.377000000000E-01	-3.118000000000E-01
	O12	O	2.192000000000E-01	-1.377000000000E-01	-3.118000000000E-01
	O13	O	2.192000000000E-01	1.377000000000E-01	-3.118000000000E-01
	O14	O	-2.192000000000E-01	-1.377000000000E-01	-3.118000000000E-01
	O15	O	-2.808000000000E-01	3.623000000000E-01	3.118000000000E-01
	O16	O	2.808000000000E-01	-3.623000000000E-01	3.118000000000E-01
	O17	O	3.409000000000E-01	3.146000000000E-01	-3.773000000000E-01
	O18	O	-3.409000000000E-01	-3.146000000000E-01	-3.773000000000E-01
	O19	O	-1.591000000000E-01	1.854000000000E-01	3.773000000000E-01
	O20	O	1.591000000000E-01	-1.854000000000E-01	3.773000000000E-01
	O21	O	1.591000000000E-01	1.854000000000E-01	3.773000000000E-01
	O22	O	-1.591000000000E-01	-1.854000000000E-01	3.773000000000E-01
	O23	O	-3.409000000000E-01	3.146000000000E-01	-3.773000000000E-01
	O24	O	3.409000000000E-01	-3.146000000000E-01	-3.773000000000E-01
	O25	O	3.345000000000E-01	-5.000000000000E-01	-4.861000000000E-01
	O26	O	-3.345000000000E-01	-5.000000000000E-01	-4.861000000000E-01
	O27	O	-1.655000000000E-01	9.819913242059E-17	4.861000000000E-01
	O28	O	1.655000000000E-01	-9.819913242059E-17	4.861000000000E-01
	O29	O	3.976000000000E-01	3.184000000000E-01	-4.670000000000E-02
	O30	O	-3.976000000000E-01	-3.184000000000E-01	-4.670000000000E-02
	O31	O	-1.024000000000E-01	1.816000000000E-01	4.670000000000E-02
	O32	O	1.024000000000E-01	-1.816000000000E-01	4.670000000000E-02
	O33	O	1.024000000000E-01	1.816000000000E-01	4.670000000000E-02
	O34	O	-1.024000000000E-01	-1.816000000000E-01	4.670000000000E-02
	O35	O	-3.976000000000E-01	3.184000000000E-01	-4.670000000000E-02
	O36	O	3.976000000000E-01	-3.184000000000E-01	-4.670000000000E-02
	O37	O	4.275000000000E-01	-5.000000000000E-01	4.390000000000E-02
	O38	O	-4.275000000000E-01	-5.000000000000E-01	4.390000000000E-02
	O39	O	-7.250000000000E-02	9.819913242059E-17	-4.390000000000E-02
	O40	O	7.250000000000E-02	-9.819913242059E-17	-4.390000000000E-02
	O41	O	-5.000000000000E-01	3.533000000000E-01	1.271000000000E-01
	O42	O	-5.000000000000E-01	-3.533000000000E-01	1.271000000000E-01
	O43	O	-1.194591015064E-16	1.467000000000E-01	-1.271000000000E-01
	O44	O	0.000000000000E+00	-1.467000000000E-01	-1.271000000000E-01
	O45	O	2.208000000000E-01	-5.000000000000E-01	1.287000000000E-01
	O46	O	-2.208000000000E-01	-5.000000000000E-01	1.287000000000E-01
	O47	O	-2.792000000000E-01	9.819913242059E-17	-1.287000000000E-01
	O48	O	2.792000000000E-01	-9.819913242059E-17	-1.287000000000E-01
	O49	O	2.842000000000E-01	3.704000000000E-01	-6.470000000000E-02
	O50	O	-2.842000000000E-01	-3.704000000000E-01	-6.470000000000E-02
	O51	O	-2.158000000000E-01	1.296000000000E-01	6.470000000000E-02
	O52	O	2.158000000000E-01	-1.296000000000E-01	6.470000000000E-02
	O53	O	2.158000000000E-01	1.296000000000E-01	6.470000000000E-02
	O54	O	-2.158000000000E-01	-1.296000000000E-01	6.470000000000E-02
	O55	O	-2.842000000000E-01	3.704000000000E-01	-6.470000000000E-02
	O56	O	2.842000000000E-01	-3.704000000000E-01	-6.470000000000E-02
	O57	O	1.854000000000E-01	3.153000000000E-01	1.106000000000E-01
	O58	O	-1.854000000000E-01	-3.153000000000E-01	1.106000000000E-01
	O59	O	-3.146000000000E-01	1.847000000000E-01	-1.106000000000E-01
	O60	O	3.146000000000E-01	-1.847000000000E-01	-1.106000000000E-01
	O61	O	3.146000000000E-01	1.847000000000E-01	-1.106000000000E-01
	O62	O	-3.146000000000E-01	-1.847000000000E-01	-1.106000000000E-01
	O63	O	-1.854000000000E-01	3.153000000000E-01	1.106000000000E-01
	O64	O	1.854000000000E-01	-3.153000000000E-01	1.106000000000E-01
	Si65	Si	3.387000000000E-01	3.876000000000E-01	4.408000000000E-01
	Si66	Si	-3.387000000000E-01	-3.876000000000E-01	4.408000000000E-01
	Si67	Si	-1.613000000000E-01	1.124000000000E-01	-4.408000000000E-01
	Si68	Si	1.613000000000E-01	-1.124000000000E-01	-4.408000000000E-01
	Si69	Si	1.613000000000E-01	1.124000000000E-01	-4.408000000000E-01
	Si70	Si	-1.613000000000E-01	-1.124000000000E-01	-4.408000000000E-01
	Si71	Si	-3.387000000000E-01	3.876000000000E-01	4.408000000000E-01
	Si72	Si	3.387000000000E-01	-3.876000000000E-01	4.408000000000E-01
	Si73	Si	4.309000000000E-01	3.864000000000E-01	1.098000000000E-01
	Si74	Si	-4.309000000000E-01	-3.864000000000E-01	1.098000000000E-01
	Si75	Si	-6.910000000000E-02	1.136000000000E-01	-1.098000000000E-01
	Si76	Si	6.910000000000E-02	-1.136000000000E-01	-1.098000000000E-01
	Si77	Si	6.910000000000E-02	1.136000000000E-01	-1.098000000000E-01
	Si78	Si	-6.910000000000E-02	-1.136000000000E-01	-1.098000000000E-01
	Si79	Si	-4.309000000000E-01	3.864000000000E-01	1.098000000000E-01
	Si80	Si	4.309000000000E-01	-3.864000000000E-01	1.098000000000E-01
	Si81	Si	2.428000000000E-01	3.871000000000E-01	1.216000000000E-01
	Si82	Si	-2.428000000000E-01	-3.871000000000E-01	1.216000000000E-01
	Si83	Si	-2.572000000000E-01	1.129000000000E-01	-1.216000000000E-01
	Si84	Si	2.572000000000E-01	-1.129000000000E-01	-1.216000000000E-01
	Si85	Si	2.572000000000E-01	1.129000000000E-01	-1.216000000000E-01
	Si86	Si	-2.572000000000E-01	-1.129000000000E-01	-1.216000000000E-01
	Si87	Si	-2.428000000000E-01	3.871000000000E-01	1.216000000000E-01
	Si88	Si	2.428000000000E-01	-3.871000000000E-01	1.216000000000E-01
	Si89	Si	3.344000000000E-01	2.971000000000E-01	-1.499000000000E-01
	Si90	Si	-3.344000000000E-01	-2.971000000000E-01	-1.499000000000E-01
	Si91	Si	-1.656000000000E-01	2.029000000000E-01	1.499000000000E-01
	Si92	Si	1.656000000000E-01	-2.029000000000E-01	1.499000000000E-01
	Si93	Si	1.656000000000E-01	2.029000000000E-01	1.499000000000E-01
	Si94	Si	-1.656000000000E-01	-2.029000000000E-01	1.499000000000E-01
	Si95	Si	-3.344000000000E-01	2.971000000000E-01	-1.499000000000E-01
	Si96	Si	3.344000000000E-01	-2.971000000000E-01	-1.499000000000E-01
