data AFV
_chemical_name_common		'AFV'
_cell_length_a		13.22610000
_cell_length_b		13.22610000
_cell_length_c		12.58380000
_cell_angle_alpha		90.000000
_cell_angle_beta		90.000000
_cell_angle_gamma		120.000000
_space group_name_H-M_alt		'P 1'
_space_group_IT_number		1

loop_
	_atom_site_label
	_atom_site_type_symbol
	_atom_site_fract_x
	_atom_site_fract_y
	_atom_site_fract_z
	Si1	Si	4.349000000000E-01	1.001000000000E-01	1.750000000000E-01
	Si2	Si	-1.001000000000E-01	3.348000000000E-01	1.750000000000E-01
	Si3	Si	-3.348000000000E-01	-4.349000000000E-01	1.750000000000E-01
	Si4	Si	3.348000000000E-01	-1.001000000000E-01	-1.750000000000E-01
	Si5	Si	-4.349000000000E-01	-3.348000000000E-01	-1.750000000000E-01
	Si6	Si	1.001000000000E-01	4.349000000000E-01	-1.750000000000E-01
	Si7	Si	-4.349000000000E-01	-1.001000000000E-01	-1.750000000000E-01
	Si8	Si	1.001000000000E-01	-3.348000000000E-01	-1.750000000000E-01
	Si9	Si	3.348000000000E-01	4.349000000000E-01	-1.750000000000E-01
	Si10	Si	-3.348000000000E-01	1.001000000000E-01	1.750000000000E-01
	Si11	Si	4.349000000000E-01	3.348000000000E-01	1.750000000000E-01
	Si12	Si	-1.001000000000E-01	-4.349000000000E-01	1.750000000000E-01
	Si13	Si	4.362000000000E-01	9.980000000000E-02	4.150000000000E-01
	Si14	Si	-9.980000000000E-02	3.364000000000E-01	4.150000000000E-01
	Si15	Si	-3.364000000000E-01	-4.362000000000E-01	4.150000000000E-01
	Si16	Si	3.364000000000E-01	-9.980000000000E-02	-4.150000000000E-01
	Si17	Si	-4.362000000000E-01	-3.364000000000E-01	-4.150000000000E-01
	Si18	Si	9.980000000000E-02	4.362000000000E-01	-4.150000000000E-01
	Si19	Si	-4.362000000000E-01	-9.980000000000E-02	-4.150000000000E-01
	Si20	Si	9.980000000000E-02	-3.364000000000E-01	-4.150000000000E-01
	Si21	Si	3.364000000000E-01	4.362000000000E-01	-4.150000000000E-01
	Si22	Si	-3.364000000000E-01	9.980000000000E-02	4.150000000000E-01
	Si23	Si	4.362000000000E-01	3.364000000000E-01	4.150000000000E-01
	Si24	Si	-9.980000000000E-02	-4.362000000000E-01	4.150000000000E-01
	Si25	Si	2.377000000000E-01	5.551115123126E-17	0.000000000000E+00
	Si26	Si	1.938553502931E-17	2.377000000000E-01	0.000000000000E+00
	Si27	Si	-2.377000000000E-01	-2.377000000000E-01	0.000000000000E+00
	Si28	Si	-2.377000000000E-01	-1.387778780781E-17	0.000000000000E+00
	Si29	Si	-1.938553502931E-17	-2.377000000000E-01	0.000000000000E+00
	Si30	Si	2.377000000000E-01	2.377000000000E-01	0.000000000000E+00
	O31	O	-2.361000000000E-01	2.361000000000E-01	1.719000000000E-01
	O32	O	-2.361000000000E-01	-4.722000000000E-01	1.719000000000E-01
	O33	O	4.722000000000E-01	2.361000000000E-01	1.719000000000E-01
	O34	O	-4.722000000000E-01	-2.361000000000E-01	-1.719000000000E-01
	O35	O	2.361000000000E-01	4.722000000000E-01	-1.719000000000E-01
	O36	O	2.361000000000E-01	-2.361000000000E-01	-1.719000000000E-01
	O37	O	3.220000000000E-01	2.660000000000E-02	1.011000000000E-01
	O38	O	-2.660000000000E-02	2.954000000000E-01	1.011000000000E-01
	O39	O	-2.954000000000E-01	-3.220000000000E-01	1.011000000000E-01
	O40	O	2.954000000000E-01	-2.660000000000E-02	-1.011000000000E-01
	O41	O	-3.220000000000E-01	-2.954000000000E-01	-1.011000000000E-01
	O42	O	2.660000000000E-02	3.220000000000E-01	-1.011000000000E-01
	O43	O	-3.220000000000E-01	-2.660000000000E-02	-1.011000000000E-01
	O44	O	2.660000000000E-02	-2.954000000000E-01	-1.011000000000E-01
	O45	O	2.954000000000E-01	3.220000000000E-01	-1.011000000000E-01
	O46	O	-2.954000000000E-01	2.660000000000E-02	1.011000000000E-01
	O47	O	3.220000000000E-01	2.954000000000E-01	1.011000000000E-01
	O48	O	-2.660000000000E-02	-3.220000000000E-01	1.011000000000E-01
	O49	O	-4.574000000000E-01	4.574000000000E-01	1.354000000000E-01
	O50	O	-4.574000000000E-01	8.520000000000E-02	1.354000000000E-01
	O51	O	-8.520000000000E-02	4.574000000000E-01	1.354000000000E-01
	O52	O	8.520000000000E-02	-4.574000000000E-01	-1.354000000000E-01
	O53	O	4.574000000000E-01	-8.520000000000E-02	-1.354000000000E-01
	O54	O	4.574000000000E-01	-4.574000000000E-01	-1.354000000000E-01
	O55	O	4.024000000000E-01	5.240000000000E-02	2.951000000000E-01
	O56	O	-5.240000000000E-02	3.500000000000E-01	2.951000000000E-01
	O57	O	-3.500000000000E-01	-4.024000000000E-01	2.951000000000E-01
	O58	O	3.500000000000E-01	-5.240000000000E-02	-2.951000000000E-01
	O59	O	-4.024000000000E-01	-3.500000000000E-01	-2.951000000000E-01
	O60	O	5.240000000000E-02	4.024000000000E-01	-2.951000000000E-01
	O61	O	-4.024000000000E-01	-5.240000000000E-02	-2.951000000000E-01
	O62	O	5.240000000000E-02	-3.500000000000E-01	-2.951000000000E-01
	O63	O	3.500000000000E-01	4.024000000000E-01	-2.951000000000E-01
	O64	O	-3.500000000000E-01	5.240000000000E-02	2.951000000000E-01
	O65	O	4.024000000000E-01	3.500000000000E-01	2.951000000000E-01
	O66	O	-5.240000000000E-02	-4.024000000000E-01	2.951000000000E-01
	O67	O	-4.275000000000E-01	4.275000000000E-01	4.352000000000E-01
	O68	O	-4.275000000000E-01	1.450000000000E-01	4.352000000000E-01
	O69	O	-1.450000000000E-01	4.275000000000E-01	4.352000000000E-01
	O70	O	1.450000000000E-01	-4.275000000000E-01	-4.352000000000E-01
	O71	O	4.275000000000E-01	-1.450000000000E-01	-4.352000000000E-01
	O72	O	4.275000000000E-01	-4.275000000000E-01	-4.352000000000E-01
	O73	O	3.587000000000E-01	-5.551115123126E-17	5.000000000000E-01
	O74	O	3.877107005862E-17	3.587000000000E-01	5.000000000000E-01
	O75	O	-3.587000000000E-01	-3.587000000000E-01	5.000000000000E-01
	O76	O	-3.587000000000E-01	5.551115123126E-17	5.000000000000E-01
	O77	O	-3.877107005862E-17	-3.587000000000E-01	5.000000000000E-01
	O78	O	3.587000000000E-01	3.587000000000E-01	5.000000000000E-01
	O79	O	-2.053000000000E-01	2.053000000000E-01	4.327000000000E-01
	O80	O	-2.053000000000E-01	-4.106000000000E-01	4.327000000000E-01
	O81	O	4.106000000000E-01	2.053000000000E-01	4.327000000000E-01
	O82	O	-4.106000000000E-01	-2.053000000000E-01	-4.327000000000E-01
	O83	O	2.053000000000E-01	4.106000000000E-01	-4.327000000000E-01
	O84	O	2.053000000000E-01	-2.053000000000E-01	-4.327000000000E-01
	O85	O	-1.117000000000E-01	1.117000000000E-01	-2.430000000000E-02
	O86	O	-1.117000000000E-01	-2.234000000000E-01	-2.430000000000E-02
	O87	O	2.234000000000E-01	1.117000000000E-01	-2.430000000000E-02
	O88	O	-2.234000000000E-01	-1.117000000000E-01	2.430000000000E-02
	O89	O	1.117000000000E-01	2.234000000000E-01	2.430000000000E-02
	O90	O	1.117000000000E-01	-1.117000000000E-01	2.430000000000E-02
