data AFX
_chemical_name_common		'AFX'
_cell_length_a		13.67400000
_cell_length_b		13.67400000
_cell_length_c		19.69500000
_cell_angle_alpha		90.000000
_cell_angle_beta		90.000000
_cell_angle_gamma		120.000000
_space group_name_H-M_alt		'P 1'
_space_group_IT_number		1

loop_
	_atom_site_label
	_atom_site_type_symbol
	_atom_site_fract_x
	_atom_site_fract_y
	_atom_site_fract_z
	O1	O	9.800000000000E-02	1.960000000000E-01	9.200000000000E-02
	O2	O	-9.800000000000E-02	-1.960000000000E-01	-4.080000000000E-01
	O3	O	-1.960000000000E-01	-9.800000000000E-02	9.200000000000E-02
	O4	O	9.800000000000E-02	-9.800000000000E-02	9.200000000000E-02
	O5	O	-9.800000000000E-02	9.800000000000E-02	-4.080000000000E-01
	O6	O	1.960000000000E-01	9.800000000000E-02	-4.080000000000E-01
	O7	O	-9.800000000000E-02	-1.960000000000E-01	-9.200000000000E-02
	O8	O	-9.800000000000E-02	9.800000000000E-02	-9.200000000000E-02
	O9	O	1.960000000000E-01	9.800000000000E-02	-9.200000000000E-02
	O10	O	-1.960000000000E-01	-9.800000000000E-02	4.080000000000E-01
	O11	O	9.800000000000E-02	-9.800000000000E-02	4.080000000000E-01
	O12	O	9.800000000000E-02	1.960000000000E-01	4.080000000000E-01
	O13	O	1.203000000000E-01	2.406000000000E-01	-4.014000000000E-01
	O14	O	-1.203000000000E-01	-2.406000000000E-01	9.860000000000E-02
	O15	O	-2.406000000000E-01	-1.203000000000E-01	-4.014000000000E-01
	O16	O	1.203000000000E-01	-1.203000000000E-01	-4.014000000000E-01
	O17	O	-1.203000000000E-01	1.203000000000E-01	9.860000000000E-02
	O18	O	2.406000000000E-01	1.203000000000E-01	9.860000000000E-02
	O19	O	-1.203000000000E-01	-2.406000000000E-01	4.014000000000E-01
	O20	O	-1.203000000000E-01	1.203000000000E-01	4.014000000000E-01
	O21	O	2.406000000000E-01	1.203000000000E-01	4.014000000000E-01
	O22	O	-2.406000000000E-01	-1.203000000000E-01	-9.860000000000E-02
	O23	O	1.203000000000E-01	-1.203000000000E-01	-9.860000000000E-02
	O24	O	1.203000000000E-01	2.406000000000E-01	-9.860000000000E-02
	O25	O	2.577000000000E-01	-8.326672684689E-17	0.000000000000E+00
	O26	O	-2.577000000000E-01	8.326672684689E-17	5.000000000000E-01
	O27	O	3.750110060716E-17	2.577000000000E-01	0.000000000000E+00
	O28	O	-2.577000000000E-01	-2.577000000000E-01	0.000000000000E+00
	O29	O	2.577000000000E-01	2.577000000000E-01	5.000000000000E-01
	O30	O	-3.750110060716E-17	-2.577000000000E-01	5.000000000000E-01
	O31	O	-2.577000000000E-01	8.326672684689E-17	0.000000000000E+00
	O32	O	2.577000000000E-01	-8.326672684689E-17	5.000000000000E-01
	O33	O	-3.750110060716E-17	-2.577000000000E-01	0.000000000000E+00
	O34	O	2.577000000000E-01	2.577000000000E-01	0.000000000000E+00
	O35	O	-2.577000000000E-01	-2.577000000000E-01	5.000000000000E-01
	O36	O	3.750110060716E-17	2.577000000000E-01	5.000000000000E-01
	O37	O	2.320000000000E-02	3.334000000000E-01	1.250000000000E-01
	O38	O	-2.320000000000E-02	-3.334000000000E-01	-3.750000000000E-01
	O39	O	-3.334000000000E-01	-3.102000000000E-01	1.250000000000E-01
	O40	O	3.102000000000E-01	-2.320000000000E-02	1.250000000000E-01
	O41	O	-3.102000000000E-01	2.320000000000E-02	-3.750000000000E-01
	O42	O	3.334000000000E-01	3.102000000000E-01	-3.750000000000E-01
	O43	O	-3.102000000000E-01	-3.334000000000E-01	-1.250000000000E-01
	O44	O	-2.320000000000E-02	3.102000000000E-01	-1.250000000000E-01
	O45	O	3.334000000000E-01	2.320000000000E-02	-1.250000000000E-01
	O46	O	-3.334000000000E-01	-2.320000000000E-02	3.750000000000E-01
	O47	O	2.320000000000E-02	-3.102000000000E-01	3.750000000000E-01
	O48	O	3.102000000000E-01	3.334000000000E-01	3.750000000000E-01
	O49	O	-2.320000000000E-02	-3.334000000000E-01	-1.250000000000E-01
	O50	O	2.320000000000E-02	3.334000000000E-01	3.750000000000E-01
	O51	O	3.334000000000E-01	3.102000000000E-01	-1.250000000000E-01
	O52	O	-3.102000000000E-01	2.320000000000E-02	-1.250000000000E-01
	O53	O	3.102000000000E-01	-2.320000000000E-02	3.750000000000E-01
	O54	O	-3.334000000000E-01	-3.102000000000E-01	3.750000000000E-01
	O55	O	3.102000000000E-01	3.334000000000E-01	1.250000000000E-01
	O56	O	2.320000000000E-02	-3.102000000000E-01	1.250000000000E-01
	O57	O	-3.334000000000E-01	-2.320000000000E-02	1.250000000000E-01
	O58	O	3.334000000000E-01	2.320000000000E-02	-3.750000000000E-01
	O59	O	-2.320000000000E-02	3.102000000000E-01	-3.750000000000E-01
	O60	O	-3.102000000000E-01	-3.334000000000E-01	-3.750000000000E-01
	O61	O	2.354500000000E-01	4.709000000000E-01	1.577000000000E-01
	O62	O	-2.354500000000E-01	-4.709000000000E-01	-3.423000000000E-01
	O63	O	-4.709000000000E-01	-2.354500000000E-01	1.577000000000E-01
	O64	O	2.354500000000E-01	-2.354500000000E-01	1.577000000000E-01
	O65	O	-2.354500000000E-01	2.354500000000E-01	-3.423000000000E-01
	O66	O	4.709000000000E-01	2.354500000000E-01	-3.423000000000E-01
	O67	O	-2.354500000000E-01	-4.709000000000E-01	-1.577000000000E-01
	O68	O	-2.354500000000E-01	2.354500000000E-01	-1.577000000000E-01
	O69	O	4.709000000000E-01	2.354500000000E-01	-1.577000000000E-01
	O70	O	-4.709000000000E-01	-2.354500000000E-01	3.423000000000E-01
	O71	O	2.354500000000E-01	-2.354500000000E-01	3.423000000000E-01
	O72	O	2.354500000000E-01	4.709000000000E-01	3.423000000000E-01
	O73	O	3.325000000000E-01	4.085000000000E-01	2.500000000000E-01
	O74	O	-3.325000000000E-01	-4.085000000000E-01	-2.500000000000E-01
	O75	O	-4.085000000000E-01	-7.600000000000E-02	2.500000000000E-01
	O76	O	7.600000000000E-02	-3.325000000000E-01	2.500000000000E-01
	O77	O	-7.600000000000E-02	3.325000000000E-01	-2.500000000000E-01
	O78	O	4.085000000000E-01	7.600000000000E-02	-2.500000000000E-01
	O79	O	-7.600000000000E-02	-4.085000000000E-01	-2.500000000000E-01
	O80	O	-3.325000000000E-01	7.600000000000E-02	-2.500000000000E-01
	O81	O	4.085000000000E-01	3.325000000000E-01	-2.500000000000E-01
	O82	O	-4.085000000000E-01	-3.325000000000E-01	2.500000000000E-01
	O83	O	3.325000000000E-01	-7.600000000000E-02	2.500000000000E-01
	O84	O	7.600000000000E-02	4.085000000000E-01	2.500000000000E-01
	O85	O	-4.537000000000E-01	9.260000000000E-02	-3.482000000000E-01
	O86	O	4.537000000000E-01	-9.260000000000E-02	1.518000000000E-01
	O87	O	-9.260000000000E-02	4.537000000000E-01	-3.482000000000E-01
	O88	O	-4.537000000000E-01	4.537000000000E-01	-3.482000000000E-01
	O89	O	4.537000000000E-01	-4.537000000000E-01	1.518000000000E-01
	O90	O	9.260000000000E-02	-4.537000000000E-01	1.518000000000E-01
	O91	O	4.537000000000E-01	-9.260000000000E-02	3.482000000000E-01
	O92	O	4.537000000000E-01	-4.537000000000E-01	3.482000000000E-01
	O93	O	9.260000000000E-02	-4.537000000000E-01	3.482000000000E-01
	O94	O	-9.260000000000E-02	4.537000000000E-01	-1.518000000000E-01
	O95	O	-4.537000000000E-01	4.537000000000E-01	-1.518000000000E-01
	O96	O	-4.537000000000E-01	9.260000000000E-02	-1.518000000000E-01
	Si97	Si	3.000000000000E-04	2.268000000000E-01	7.880000000000E-02
	Si98	Si	-3.000000000000E-04	-2.268000000000E-01	-4.212000000000E-01
	Si99	Si	-2.268000000000E-01	-2.265000000000E-01	7.880000000000E-02
	Si100	Si	2.265000000000E-01	-3.000000000000E-04	7.880000000000E-02
	Si101	Si	-2.265000000000E-01	3.000000000000E-04	-4.212000000000E-01
	Si102	Si	2.268000000000E-01	2.265000000000E-01	-4.212000000000E-01
	Si103	Si	-2.265000000000E-01	-2.268000000000E-01	-7.880000000000E-02
	Si104	Si	-3.000000000000E-04	2.265000000000E-01	-7.880000000000E-02
	Si105	Si	2.268000000000E-01	3.000000000000E-04	-7.880000000000E-02
	Si106	Si	-2.268000000000E-01	-3.000000000000E-04	4.212000000000E-01
	Si107	Si	3.000000000000E-04	-2.265000000000E-01	4.212000000000E-01
	Si108	Si	2.265000000000E-01	2.268000000000E-01	4.212000000000E-01
	Si109	Si	-3.000000000000E-04	-2.268000000000E-01	-7.880000000000E-02
	Si110	Si	3.000000000000E-04	2.268000000000E-01	4.212000000000E-01
	Si111	Si	2.268000000000E-01	2.265000000000E-01	-7.880000000000E-02
	Si112	Si	-2.265000000000E-01	3.000000000000E-04	-7.880000000000E-02
	Si113	Si	2.265000000000E-01	-3.000000000000E-04	4.212000000000E-01
	Si114	Si	-2.268000000000E-01	-2.265000000000E-01	4.212000000000E-01
	Si115	Si	2.265000000000E-01	2.268000000000E-01	7.880000000000E-02
	Si116	Si	3.000000000000E-04	-2.265000000000E-01	7.880000000000E-02
	Si117	Si	-2.268000000000E-01	-3.000000000000E-04	7.880000000000E-02
	Si118	Si	2.268000000000E-01	3.000000000000E-04	-4.212000000000E-01
	Si119	Si	-3.000000000000E-04	2.265000000000E-01	-4.212000000000E-01
	Si120	Si	-2.265000000000E-01	-2.268000000000E-01	-4.212000000000E-01
	Si121	Si	3.329000000000E-01	4.398000000000E-01	1.712000000000E-01
	Si122	Si	-3.329000000000E-01	-4.398000000000E-01	-3.288000000000E-01
	Si123	Si	-4.398000000000E-01	-1.069000000000E-01	1.712000000000E-01
	Si124	Si	1.069000000000E-01	-3.329000000000E-01	1.712000000000E-01
	Si125	Si	-1.069000000000E-01	3.329000000000E-01	-3.288000000000E-01
	Si126	Si	4.398000000000E-01	1.069000000000E-01	-3.288000000000E-01
	Si127	Si	-1.069000000000E-01	-4.398000000000E-01	-1.712000000000E-01
	Si128	Si	-3.329000000000E-01	1.069000000000E-01	-1.712000000000E-01
	Si129	Si	4.398000000000E-01	3.329000000000E-01	-1.712000000000E-01
	Si130	Si	-4.398000000000E-01	-3.329000000000E-01	3.288000000000E-01
	Si131	Si	3.329000000000E-01	-1.069000000000E-01	3.288000000000E-01
	Si132	Si	1.069000000000E-01	4.398000000000E-01	3.288000000000E-01
	Si133	Si	-3.329000000000E-01	-4.398000000000E-01	-1.712000000000E-01
	Si134	Si	3.329000000000E-01	4.398000000000E-01	3.288000000000E-01
	Si135	Si	4.398000000000E-01	1.069000000000E-01	-1.712000000000E-01
	Si136	Si	-1.069000000000E-01	3.329000000000E-01	-1.712000000000E-01
	Si137	Si	1.069000000000E-01	-3.329000000000E-01	3.288000000000E-01
	Si138	Si	-4.398000000000E-01	-1.069000000000E-01	3.288000000000E-01
	Si139	Si	1.069000000000E-01	4.398000000000E-01	1.712000000000E-01
	Si140	Si	3.329000000000E-01	-1.069000000000E-01	1.712000000000E-01
	Si141	Si	-4.398000000000E-01	-3.329000000000E-01	1.712000000000E-01
	Si142	Si	4.398000000000E-01	3.329000000000E-01	-3.288000000000E-01
	Si143	Si	-3.329000000000E-01	1.069000000000E-01	-3.288000000000E-01
	Si144	Si	-1.069000000000E-01	-4.398000000000E-01	-3.288000000000E-01
