data AFY
_chemical_name_common		'AFY'
_cell_length_a		24.66000000
_cell_length_b		12.33000000
_cell_length_c		8.60300000
_cell_angle_alpha		90.000000
_cell_angle_beta		90.000000
_cell_angle_gamma		120.000000
_space group_name_H-M_alt		'P 1'
_space_group_IT_number		1

loop_
	_atom_site_label
	_atom_site_type_symbol
	_atom_site_fract_x
	_atom_site_fract_y
	_atom_site_fract_z
	O1	O	1.543500000000E-01	-2.243000000000E-01	2.491000000000E-01
	O2	O	1.121500000000E-01	-4.670000000000E-01	2.491000000000E-01
	O3	O	-2.665000000000E-01	-3.087000000000E-01	2.491000000000E-01
	O4	O	1.121500000000E-01	-3.087000000000E-01	-2.491000000000E-01
	O5	O	1.543500000000E-01	-4.670000000000E-01	-2.491000000000E-01
	O6	O	-2.665000000000E-01	-2.243000000000E-01	-2.491000000000E-01
	O7	O	-1.543500000000E-01	2.243000000000E-01	-2.491000000000E-01
	O8	O	-1.121500000000E-01	4.670000000000E-01	-2.491000000000E-01
	O9	O	2.665000000000E-01	3.087000000000E-01	-2.491000000000E-01
	O10	O	-1.121500000000E-01	3.087000000000E-01	2.491000000000E-01
	O11	O	-1.543500000000E-01	4.670000000000E-01	2.491000000000E-01
	O12	O	2.665000000000E-01	2.243000000000E-01	2.491000000000E-01
	O13	O	1.766000000000E-01	-5.551115123126E-17	3.368000000000E-01
	O14	O	2.079440590845E-17	3.532000000000E-01	3.368000000000E-01
	O15	O	-1.766000000000E-01	-3.532000000000E-01	3.368000000000E-01
	O16	O	2.079440590845E-17	-3.532000000000E-01	-3.368000000000E-01
	O17	O	1.766000000000E-01	3.532000000000E-01	-3.368000000000E-01
	O18	O	-1.766000000000E-01	-1.110223024625E-16	-3.368000000000E-01
	O19	O	1.000000000000E-01	-2.000000000000E-01	-5.000000000000E-01
	O20	O	1.000000000000E-01	4.000000000000E-01	-5.000000000000E-01
	O21	O	-2.000000000000E-01	-2.000000000000E-01	-5.000000000000E-01
	O22	O	-1.000000000000E-01	2.000000000000E-01	-5.000000000000E-01
	O23	O	-1.000000000000E-01	-4.000000000000E-01	-5.000000000000E-01
	O24	O	2.000000000000E-01	2.000000000000E-01	-5.000000000000E-01
	O25	O	-2.795000000000E-01	-4.410000000000E-01	-5.000000000000E-01
	O26	O	-2.795000000000E-01	-1.180000000000E-01	-5.000000000000E-01
	O27	O	5.900000000000E-02	-4.410000000000E-01	-5.000000000000E-01
	O28	O	-2.205000000000E-01	4.410000000000E-01	-5.000000000000E-01
	O29	O	-2.205000000000E-01	1.180000000000E-01	-5.000000000000E-01
	O30	O	-5.900000000000E-02	4.410000000000E-01	-5.000000000000E-01
	O31	O	1.666666666667E-01	-3.333333333333E-01	0.000000000000E+00
	O32	O	-1.666666666667E-01	3.333333333333E-01	0.000000000000E+00
	Si33	Si	1.625500000000E-01	-1.359000000000E-01	3.952000000000E-01
	Si34	Si	6.795000000000E-02	4.610000000000E-01	3.952000000000E-01
	Si35	Si	-2.305000000000E-01	-3.251000000000E-01	3.952000000000E-01
	Si36	Si	6.795000000000E-02	-3.251000000000E-01	-3.952000000000E-01
	Si37	Si	1.625500000000E-01	4.610000000000E-01	-3.952000000000E-01
	Si38	Si	-2.305000000000E-01	-1.359000000000E-01	-3.952000000000E-01
	Si39	Si	-1.625500000000E-01	1.359000000000E-01	-3.952000000000E-01
	Si40	Si	-6.795000000000E-02	-4.610000000000E-01	-3.952000000000E-01
	Si41	Si	2.305000000000E-01	3.251000000000E-01	-3.952000000000E-01
	Si42	Si	-6.795000000000E-02	3.251000000000E-01	3.952000000000E-01
	Si43	Si	-1.625500000000E-01	-4.610000000000E-01	3.952000000000E-01
	Si44	Si	2.305000000000E-01	1.359000000000E-01	3.952000000000E-01
	Si45	Si	1.666666666667E-01	-3.333333333333E-01	-1.868000000000E-01
	Si46	Si	1.666666666667E-01	-3.333333333333E-01	1.868000000000E-01
	Si47	Si	-1.666666666667E-01	3.333333333333E-01	1.868000000000E-01
	Si48	Si	-1.666666666667E-01	3.333333333333E-01	-1.868000000000E-01
	O49	O	-3.878500000000E-01	-4.670000000000E-01	2.491000000000E-01
	O50	O	2.205000000000E-01	-4.410000000000E-01	-5.000000000000E-01
	O51	O	-3.234000000000E-01	-2.220446049250E-16	3.368000000000E-01
	O52	O	2.205000000000E-01	-1.180000000000E-01	-5.000000000000E-01
	O53	O	3.456500000000E-01	2.243000000000E-01	-2.491000000000E-01
	O54	O	-4.410000000000E-01	-4.410000000000E-01	-5.000000000000E-01
	O55	O	-5.000000000000E-01	3.532000000000E-01	3.368000000000E-01
	O56	O	2.795000000000E-01	4.410000000000E-01	-5.000000000000E-01
	O57	O	-3.878500000000E-01	-3.087000000000E-01	-2.491000000000E-01
	O58	O	2.795000000000E-01	1.180000000000E-01	-5.000000000000E-01
	O59	O	3.234000000000E-01	-3.532000000000E-01	3.368000000000E-01
	O60	O	4.410000000000E-01	4.410000000000E-01	-5.000000000000E-01
	O61	O	3.878500000000E-01	4.670000000000E-01	-2.491000000000E-01
	O62	O	-3.333333333333E-01	-3.333333333333E-01	0.000000000000E+00
	O63	O	-5.000000000000E-01	-3.532000000000E-01	-3.368000000000E-01
	O64	O	3.333333333333E-01	3.333333333333E-01	0.000000000000E+00
	O65	O	-3.456500000000E-01	-2.243000000000E-01	2.491000000000E-01
	Si66	Si	-3.374500000000E-01	-1.359000000000E-01	3.952000000000E-01
	O67	O	-3.234000000000E-01	3.532000000000E-01	-3.368000000000E-01
	Si68	Si	-4.320500000000E-01	4.610000000000E-01	3.952000000000E-01
	O69	O	-2.335000000000E-01	3.087000000000E-01	-2.491000000000E-01
	Si70	Si	2.695000000000E-01	-3.251000000000E-01	3.952000000000E-01
	O71	O	3.234000000000E-01	-1.665334536938E-16	-3.368000000000E-01
	Si72	Si	-4.320500000000E-01	-3.251000000000E-01	-3.952000000000E-01
	O73	O	-3.456500000000E-01	-4.670000000000E-01	-2.491000000000E-01
	Si74	Si	-3.374500000000E-01	4.610000000000E-01	-3.952000000000E-01
	O75	O	-4.000000000000E-01	-2.000000000000E-01	-5.000000000000E-01
	Si76	Si	2.695000000000E-01	-1.359000000000E-01	-3.952000000000E-01
	O77	O	3.878500000000E-01	3.087000000000E-01	2.491000000000E-01
	Si78	Si	3.374500000000E-01	1.359000000000E-01	-3.952000000000E-01
	O79	O	-4.000000000000E-01	4.000000000000E-01	-5.000000000000E-01
	Si80	Si	4.320500000000E-01	-4.610000000000E-01	-3.952000000000E-01
	O81	O	2.335000000000E-01	-3.087000000000E-01	2.491000000000E-01
	Si82	Si	-2.695000000000E-01	3.251000000000E-01	-3.952000000000E-01
	O83	O	3.000000000000E-01	-2.000000000000E-01	-5.000000000000E-01
	Si84	Si	4.320500000000E-01	3.251000000000E-01	3.952000000000E-01
	O85	O	3.456500000000E-01	4.670000000000E-01	2.491000000000E-01
	Si86	Si	3.374500000000E-01	-4.610000000000E-01	3.952000000000E-01
	O87	O	4.000000000000E-01	2.000000000000E-01	-5.000000000000E-01
	Si88	Si	-2.695000000000E-01	1.359000000000E-01	3.952000000000E-01
	O89	O	2.335000000000E-01	-2.243000000000E-01	-2.491000000000E-01
	Si90	Si	-3.333333333333E-01	-3.333333333333E-01	-1.868000000000E-01
	O91	O	4.000000000000E-01	-4.000000000000E-01	-5.000000000000E-01
	Si92	Si	-3.333333333333E-01	-3.333333333333E-01	1.868000000000E-01
	O93	O	-2.335000000000E-01	2.243000000000E-01	2.491000000000E-01
	Si94	Si	3.333333333333E-01	3.333333333333E-01	1.868000000000E-01
	O95	O	-3.000000000000E-01	2.000000000000E-01	-5.000000000000E-01
	Si96	Si	3.333333333333E-01	3.333333333333E-01	-1.868000000000E-01
