data ANA
_chemical_name_common		'ANA'
_cell_length_a		11.74936665
_cell_length_b		11.74936665
_cell_length_c		11.74936665
_cell_angle_alpha		109.471221
_cell_angle_beta		109.471221
_cell_angle_gamma		109.471221
_space group_name_H-M_alt		'P 1'
_space_group_IT_number		1

loop_
	_atom_site_label
	_atom_site_type_symbol
	_atom_site_fract_x
	_atom_site_fract_y
	_atom_site_fract_z
	O1	O	-4.104000000000E-01	-2.403000000000E-01	1.133000000000E-01
	O2	O	1.464000000000E-01	4.763000000000E-01	3.867000000000E-01
	O3	O	-8.960000000000E-02	2.370000000000E-02	1.701000000000E-01
	O4	O	3.536000000000E-01	-2.597000000000E-01	3.299000000000E-01
	O5	O	1.133000000000E-01	-4.104000000000E-01	-2.403000000000E-01
	O6	O	-2.403000000000E-01	1.133000000000E-01	-4.104000000000E-01
	O7	O	3.299000000000E-01	3.536000000000E-01	-2.597000000000E-01
	O8	O	4.763000000000E-01	3.867000000000E-01	1.464000000000E-01
	O9	O	3.867000000000E-01	1.464000000000E-01	4.763000000000E-01
	O10	O	2.370000000000E-02	1.701000000000E-01	-8.960000000000E-02
	O11	O	1.701000000000E-01	-8.960000000000E-02	2.370000000000E-02
	O12	O	-2.597000000000E-01	3.299000000000E-01	3.536000000000E-01
	O13	O	-2.597000000000E-01	-8.960000000000E-02	3.867000000000E-01
	O14	O	2.370000000000E-02	3.536000000000E-01	1.133000000000E-01
	O15	O	4.763000000000E-01	-4.104000000000E-01	3.299000000000E-01
	O16	O	-2.403000000000E-01	1.464000000000E-01	1.701000000000E-01
	O17	O	-8.960000000000E-02	3.867000000000E-01	-2.597000000000E-01
	O18	O	3.867000000000E-01	-2.597000000000E-01	-8.960000000000E-02
	O19	O	1.464000000000E-01	1.701000000000E-01	-2.403000000000E-01
	O20	O	1.133000000000E-01	2.370000000000E-02	3.536000000000E-01
	O21	O	3.536000000000E-01	1.133000000000E-01	2.370000000000E-02
	O22	O	3.299000000000E-01	4.763000000000E-01	-4.104000000000E-01
	O23	O	-4.104000000000E-01	3.299000000000E-01	4.763000000000E-01
	O24	O	1.701000000000E-01	-2.403000000000E-01	1.464000000000E-01
	O25	O	4.104000000000E-01	2.403000000000E-01	-1.133000000000E-01
	O26	O	-1.464000000000E-01	-4.763000000000E-01	-3.867000000000E-01
	O27	O	8.960000000000E-02	-2.370000000000E-02	-1.701000000000E-01
	O28	O	-3.536000000000E-01	2.597000000000E-01	-3.299000000000E-01
	O29	O	-1.133000000000E-01	4.104000000000E-01	2.403000000000E-01
	O30	O	2.403000000000E-01	-1.133000000000E-01	4.104000000000E-01
	O31	O	-3.299000000000E-01	-3.536000000000E-01	2.597000000000E-01
	O32	O	-4.763000000000E-01	-3.867000000000E-01	-1.464000000000E-01
	O33	O	-3.867000000000E-01	-1.464000000000E-01	-4.763000000000E-01
	O34	O	-2.370000000000E-02	-1.701000000000E-01	8.960000000000E-02
	O35	O	-1.701000000000E-01	8.960000000000E-02	-2.370000000000E-02
	O36	O	2.597000000000E-01	-3.299000000000E-01	-3.536000000000E-01
	O37	O	2.597000000000E-01	8.960000000000E-02	-3.867000000000E-01
	O38	O	-2.370000000000E-02	-3.536000000000E-01	-1.133000000000E-01
	O39	O	-4.763000000000E-01	4.104000000000E-01	-3.299000000000E-01
	O40	O	2.403000000000E-01	-1.464000000000E-01	-1.701000000000E-01
	O41	O	8.960000000000E-02	-3.867000000000E-01	2.597000000000E-01
	O42	O	-3.867000000000E-01	2.597000000000E-01	8.960000000000E-02
	O43	O	-1.464000000000E-01	-1.701000000000E-01	2.403000000000E-01
	O44	O	-1.133000000000E-01	-2.370000000000E-02	-3.536000000000E-01
	O45	O	-3.536000000000E-01	-1.133000000000E-01	-2.370000000000E-02
	O46	O	-3.299000000000E-01	-4.763000000000E-01	4.104000000000E-01
	O47	O	4.104000000000E-01	-3.299000000000E-01	-4.763000000000E-01
	O48	O	-1.701000000000E-01	2.403000000000E-01	-1.464000000000E-01
	Si49	Si	-2.866000000000E-01	-2.134000000000E-01	2.500000000000E-01
	Si50	Si	3.660000000000E-02	4.634000000000E-01	2.500000000000E-01
	Si51	Si	-2.134000000000E-01	3.660000000000E-02	7.320000000000E-02
	Si52	Si	4.634000000000E-01	-2.866000000000E-01	4.268000000000E-01
	Si53	Si	2.500000000000E-01	-2.866000000000E-01	-2.134000000000E-01
	Si54	Si	-2.134000000000E-01	2.500000000000E-01	-2.866000000000E-01
	Si55	Si	4.268000000000E-01	4.634000000000E-01	-2.866000000000E-01
	Si56	Si	4.634000000000E-01	2.500000000000E-01	3.660000000000E-02
	Si57	Si	2.500000000000E-01	3.660000000000E-02	4.634000000000E-01
	Si58	Si	3.660000000000E-02	7.320000000000E-02	-2.134000000000E-01
	Si59	Si	7.320000000000E-02	-2.134000000000E-01	3.660000000000E-02
	Si60	Si	-2.866000000000E-01	4.268000000000E-01	4.634000000000E-01
	Si61	Si	2.866000000000E-01	2.134000000000E-01	-2.500000000000E-01
	Si62	Si	-3.660000000000E-02	-4.634000000000E-01	-2.500000000000E-01
	Si63	Si	2.134000000000E-01	-3.660000000000E-02	-7.320000000000E-02
	Si64	Si	-4.634000000000E-01	2.866000000000E-01	-4.268000000000E-01
	Si65	Si	-2.500000000000E-01	2.866000000000E-01	2.134000000000E-01
	Si66	Si	2.134000000000E-01	-2.500000000000E-01	2.866000000000E-01
	Si67	Si	-4.268000000000E-01	-4.634000000000E-01	2.866000000000E-01
	Si68	Si	-4.634000000000E-01	-2.500000000000E-01	-3.660000000000E-02
	Si69	Si	-2.500000000000E-01	-3.660000000000E-02	-4.634000000000E-01
	Si70	Si	-3.660000000000E-02	-7.320000000000E-02	2.134000000000E-01
	Si71	Si	-7.320000000000E-02	2.134000000000E-01	-3.660000000000E-02
	Si72	Si	2.866000000000E-01	-4.268000000000E-01	-4.634000000000E-01
