data APC
_chemical_name_common		'APC'
_cell_length_a		10.67134949
_cell_length_b		10.67134949
_cell_length_c		20.78400000
_cell_angle_alpha		90.000000
_cell_angle_beta		90.000000
_cell_angle_gamma		49.835278
_space group_name_H-M_alt		'P 1'
_space_group_IT_number		1

loop_
	_atom_site_label
	_atom_site_type_symbol
	_atom_site_fract_x
	_atom_site_fract_y
	_atom_site_fract_z
	O1	O	-2.538000000000E-01	2.538000000000E-01	2.500000000000E-01
	O2	O	-2.462000000000E-01	2.462000000000E-01	-1.497818206817E-17
	O3	O	2.538000000000E-01	-2.538000000000E-01	2.500000000000E-01
	O4	O	2.462000000000E-01	-2.462000000000E-01	-1.110223024625E-16
	O5	O	-2.710000000000E-01	2.290000000000E-01	1.250000000000E-01
	O6	O	-2.290000000000E-01	2.710000000000E-01	-1.250000000000E-01
	O7	O	2.710000000000E-01	-2.290000000000E-01	-1.250000000000E-01
	O8	O	2.290000000000E-01	-2.710000000000E-01	1.250000000000E-01
	O9	O	-4.188000000000E-01	1.678000000000E-01	2.039500000000E-01
	O10	O	-8.120000000000E-02	3.322000000000E-01	-4.605000000000E-02
	O11	O	-1.678000000000E-01	4.188000000000E-01	-2.039500000000E-01
	O12	O	-3.322000000000E-01	8.120000000000E-02	4.605000000000E-02
	O13	O	4.188000000000E-01	-1.678000000000E-01	-2.039500000000E-01
	O14	O	8.120000000000E-02	-3.322000000000E-01	4.605000000000E-02
	O15	O	1.678000000000E-01	-4.188000000000E-01	2.039500000000E-01
	O16	O	3.322000000000E-01	-8.120000000000E-02	-4.605000000000E-02
	O17	O	4.692000000000E-01	4.692000000000E-01	1.890000000000E-01
	O18	O	3.080000000000E-02	3.080000000000E-02	-6.100000000000E-02
	O19	O	-4.692000000000E-01	-4.692000000000E-01	-1.890000000000E-01
	O20	O	-3.080000000000E-02	-3.080000000000E-02	6.100000000000E-02
	O21	O	-4.795000000000E-01	2.050000000000E-02	1.250000000000E-01
	O22	O	-2.050000000000E-02	4.795000000000E-01	-1.250000000000E-01
	O23	O	4.795000000000E-01	-2.050000000000E-02	-1.250000000000E-01
	O24	O	2.050000000000E-02	-4.795000000000E-01	1.250000000000E-01
	O25	O	-5.000000000000E-01	1.036192339221E-18	0.000000000000E+00
	O26	O	3.276215017939E-17	-5.000000000000E-01	2.500000000000E-01
	O27	O	3.276215017939E-17	-5.000000000000E-01	0.000000000000E+00
	O28	O	-5.000000000000E-01	1.051114866382E-16	2.500000000000E-01
	O29	O	-2.207000000000E-01	-2.207000000000E-01	5.980000000000E-02
	O30	O	-2.793000000000E-01	-2.793000000000E-01	-1.902000000000E-01
	O31	O	2.207000000000E-01	2.207000000000E-01	-5.980000000000E-02
	O32	O	2.793000000000E-01	2.793000000000E-01	1.902000000000E-01
	Si33	Si	-3.685000000000E-01	2.791000000000E-01	1.920000000000E-01
	Si34	Si	-1.315000000000E-01	2.209000000000E-01	-5.800000000000E-02
	Si35	Si	-2.791000000000E-01	3.685000000000E-01	-1.920000000000E-01
	Si36	Si	-2.209000000000E-01	1.315000000000E-01	5.800000000000E-02
	Si37	Si	3.685000000000E-01	-2.791000000000E-01	-1.920000000000E-01
	Si38	Si	1.315000000000E-01	-2.209000000000E-01	5.800000000000E-02
	Si39	Si	2.791000000000E-01	-3.685000000000E-01	1.920000000000E-01
	Si40	Si	2.209000000000E-01	-1.315000000000E-01	-5.800000000000E-02
	Si41	Si	-3.827000000000E-01	-3.030000000000E-02	5.770000000000E-02
	Si42	Si	-1.173000000000E-01	-4.697000000000E-01	-1.923000000000E-01
	Si43	Si	3.030000000000E-02	3.827000000000E-01	-5.770000000000E-02
	Si44	Si	4.697000000000E-01	1.173000000000E-01	1.923000000000E-01
	Si45	Si	3.827000000000E-01	3.030000000000E-02	-5.770000000000E-02
	Si46	Si	1.173000000000E-01	4.697000000000E-01	1.923000000000E-01
	Si47	Si	-3.030000000000E-02	-3.827000000000E-01	5.770000000000E-02
	Si48	Si	-4.697000000000E-01	-1.173000000000E-01	-1.923000000000E-01
	O49	O	-2.462000000000E-01	2.462000000000E-01	-5.000000000000E-01
	O50	O	-5.000000000000E-01	1.036192339221E-18	-5.000000000000E-01
	O51	O	4.188000000000E-01	-1.678000000000E-01	2.960500000000E-01
	O52	O	3.276215017939E-17	-5.000000000000E-01	-2.500000000000E-01
	O53	O	2.710000000000E-01	-2.290000000000E-01	3.750000000000E-01
	O54	O	3.276215017939E-17	-5.000000000000E-01	-5.000000000000E-01
	O55	O	8.120000000000E-02	-3.322000000000E-01	-4.539500000000E-01
	O56	O	-5.000000000000E-01	1.051114866382E-16	-2.500000000000E-01
	O57	O	2.462000000000E-01	-2.462000000000E-01	-5.000000000000E-01
	O58	O	-2.207000000000E-01	-2.207000000000E-01	-4.402000000000E-01
	O59	O	1.678000000000E-01	-4.188000000000E-01	-2.960500000000E-01
	O60	O	-2.793000000000E-01	-2.793000000000E-01	3.098000000000E-01
	O61	O	2.290000000000E-01	-2.710000000000E-01	-3.750000000000E-01
	O62	O	2.207000000000E-01	2.207000000000E-01	4.402000000000E-01
	O63	O	3.322000000000E-01	-8.120000000000E-02	4.539500000000E-01
	O64	O	2.793000000000E-01	2.793000000000E-01	-3.098000000000E-01
	O65	O	-2.538000000000E-01	2.538000000000E-01	-2.500000000000E-01
	Si66	Si	-3.685000000000E-01	2.791000000000E-01	-3.080000000000E-01
	O67	O	4.692000000000E-01	4.692000000000E-01	-3.110000000000E-01
	Si68	Si	-1.315000000000E-01	2.209000000000E-01	4.420000000000E-01
	O69	O	-4.188000000000E-01	1.678000000000E-01	-2.960500000000E-01
	Si70	Si	-2.791000000000E-01	3.685000000000E-01	3.080000000000E-01
	O71	O	3.080000000000E-02	3.080000000000E-02	4.390000000000E-01
	Si72	Si	-2.209000000000E-01	1.315000000000E-01	-4.420000000000E-01
	O73	O	-2.710000000000E-01	2.290000000000E-01	-3.750000000000E-01
	Si74	Si	3.685000000000E-01	-2.791000000000E-01	3.080000000000E-01
	O75	O	-4.692000000000E-01	-4.692000000000E-01	3.110000000000E-01
	Si76	Si	1.315000000000E-01	-2.209000000000E-01	-4.420000000000E-01
	O77	O	-8.120000000000E-02	3.322000000000E-01	4.539500000000E-01
	Si78	Si	2.791000000000E-01	-3.685000000000E-01	-3.080000000000E-01
	O79	O	-3.080000000000E-02	-3.080000000000E-02	-4.390000000000E-01
	Si80	Si	2.209000000000E-01	-1.315000000000E-01	4.420000000000E-01
	O81	O	2.538000000000E-01	-2.538000000000E-01	-2.500000000000E-01
	Si82	Si	-3.827000000000E-01	-3.030000000000E-02	-4.423000000000E-01
	O83	O	-4.795000000000E-01	2.050000000000E-02	-3.750000000000E-01
	Si84	Si	-1.173000000000E-01	-4.697000000000E-01	3.077000000000E-01
	O85	O	-1.678000000000E-01	4.188000000000E-01	2.960500000000E-01
	Si86	Si	3.030000000000E-02	3.827000000000E-01	4.423000000000E-01
	O87	O	-2.050000000000E-02	4.795000000000E-01	3.750000000000E-01
	Si88	Si	4.697000000000E-01	1.173000000000E-01	-3.077000000000E-01
	O89	O	-2.290000000000E-01	2.710000000000E-01	3.750000000000E-01
	Si90	Si	3.827000000000E-01	3.030000000000E-02	4.423000000000E-01
	O91	O	4.795000000000E-01	-2.050000000000E-02	3.750000000000E-01
	Si92	Si	1.173000000000E-01	4.697000000000E-01	-3.077000000000E-01
	O93	O	-3.322000000000E-01	8.120000000000E-02	-4.539500000000E-01
	Si94	Si	-3.030000000000E-02	-3.827000000000E-01	-4.423000000000E-01
	O95	O	2.050000000000E-02	-4.795000000000E-01	-3.750000000000E-01
	Si96	Si	-4.697000000000E-01	-1.173000000000E-01	3.077000000000E-01
