data AST
_chemical_name_common		'AST'
_cell_length_a		19.26724557
_cell_length_b		19.26724557
_cell_length_c		9.63362279
_cell_angle_alpha		60.000000
_cell_angle_beta		60.000000
_cell_angle_gamma		60.000000
_space group_name_H-M_alt		'P 1'
_space_group_IT_number		1

loop_
	_atom_site_label
	_atom_site_type_symbol
	_atom_site_fract_x
	_atom_site_fract_y
	_atom_site_fract_z
	O1	O	0.000000000000E+00	0.000000000000E+00	2.730000000000E-01
	O2	O	0.000000000000E+00	0.000000000000E+00	-2.730000000000E-01
	O3	O	-1.365000000000E-01	1.365000000000E-01	-2.978828168017E-18
	O4	O	1.365000000000E-01	-1.365000000000E-01	2.978828168017E-18
	O5	O	1.365000000000E-01	0.000000000000E+00	0.000000000000E+00
	O6	O	0.000000000000E+00	1.365000000000E-01	0.000000000000E+00
	O7	O	0.000000000000E+00	1.365000000000E-01	-2.730000000000E-01
	O8	O	0.000000000000E+00	-1.365000000000E-01	0.000000000000E+00
	O9	O	-1.365000000000E-01	0.000000000000E+00	0.000000000000E+00
	O10	O	1.365000000000E-01	1.387778780781E-17	-2.730000000000E-01
	O11	O	0.000000000000E+00	-1.365000000000E-01	2.730000000000E-01
	O12	O	-1.365000000000E-01	-1.387778780781E-17	2.730000000000E-01
	O13	O	9.090000000000E-02	9.090000000000E-02	1.818000000000E-01
	O14	O	9.090000000000E-02	9.090000000000E-02	4.546000000000E-01
	O15	O	-2.727000000000E-01	9.090000000000E-02	1.818000000000E-01
	O16	O	9.090000000000E-02	-2.727000000000E-01	1.818000000000E-01
	O17	O	-9.090000000000E-02	-9.090000000000E-02	-1.818000000000E-01
	O18	O	-9.090000000000E-02	-9.090000000000E-02	-4.546000000000E-01
	O19	O	-9.090000000000E-02	2.727000000000E-01	-1.818000000000E-01
	O20	O	2.727000000000E-01	-9.090000000000E-02	-1.818000000000E-01
	Si21	Si	5.685000000000E-02	5.685000000000E-02	1.137000000000E-01
	Si22	Si	5.685000000000E-02	5.685000000000E-02	-3.411000000000E-01
	Si23	Si	-1.705500000000E-01	5.685000000000E-02	1.137000000000E-01
	Si24	Si	5.685000000000E-02	-1.705500000000E-01	1.137000000000E-01
	Si25	Si	-5.685000000000E-02	-5.685000000000E-02	-1.137000000000E-01
	Si26	Si	-5.685000000000E-02	-5.685000000000E-02	3.411000000000E-01
	Si27	Si	-5.685000000000E-02	1.705500000000E-01	-1.137000000000E-01
	Si28	Si	1.705500000000E-01	-5.685000000000E-02	-1.137000000000E-01
	Si29	Si	-1.250000000000E-01	-1.250000000000E-01	-2.500000000000E-01
	Si30	Si	-3.750000000000E-01	1.250000000000E-01	2.500000000000E-01
	O31	O	-5.000000000000E-01	-1.365000000000E-01	0.000000000000E+00
	O32	O	5.000000000000E-01	3.635000000000E-01	1.110223024625E-16
	O33	O	-5.000000000000E-01	-5.551115123126E-17	2.730000000000E-01
	O34	O	-1.365000000000E-01	-5.000000000000E-01	1.110223024625E-16
	O35	O	3.635000000000E-01	0.000000000000E+00	0.000000000000E+00
	O36	O	3.635000000000E-01	-5.000000000000E-01	-2.220446049250E-16
	O37	O	-1.365000000000E-01	-3.635000000000E-01	0.000000000000E+00
	O38	O	1.365000000000E-01	-5.000000000000E-01	-2.730000000000E-01
	O39	O	-3.635000000000E-01	8.326672684689E-17	-2.730000000000E-01
	O40	O	-3.635000000000E-01	-5.000000000000E-01	-2.730000000000E-01
	O41	O	3.635000000000E-01	1.365000000000E-01	-1.110223024625E-16
	O42	O	-2.775557561563E-17	3.635000000000E-01	2.730000000000E-01
	O43	O	-5.000000000000E-01	-1.365000000000E-01	2.730000000000E-01
	O44	O	-5.000000000000E-01	3.635000000000E-01	2.730000000000E-01
	O45	O	3.635000000000E-01	-3.635000000000E-01	-1.348529278066E-17
	O46	O	-1.365000000000E-01	-5.000000000000E-01	2.730000000000E-01
	O47	O	3.635000000000E-01	-2.775557561563E-17	2.730000000000E-01
	O48	O	3.635000000000E-01	-5.000000000000E-01	2.730000000000E-01
	O49	O	-5.000000000000E-01	-5.000000000000E-01	2.730000000000E-01
	O50	O	9.090000000000E-02	-4.091000000000E-01	1.818000000000E-01
	O51	O	-4.091000000000E-01	9.090000000000E-02	1.818000000000E-01
	O52	O	-4.091000000000E-01	-4.091000000000E-01	1.818000000000E-01
	O53	O	1.365000000000E-01	3.635000000000E-01	0.000000000000E+00
	O54	O	9.090000000000E-02	-4.091000000000E-01	4.546000000000E-01
	O55	O	-4.091000000000E-01	9.090000000000E-02	4.546000000000E-01
	O56	O	-4.091000000000E-01	-4.091000000000E-01	4.546000000000E-01
	O57	O	-3.635000000000E-01	-1.365000000000E-01	0.000000000000E+00
	O58	O	-2.727000000000E-01	-4.091000000000E-01	1.818000000000E-01
	O59	O	2.273000000000E-01	9.090000000000E-02	1.818000000000E-01
	O60	O	2.273000000000E-01	-4.091000000000E-01	1.818000000000E-01
	O61	O	-3.635000000000E-01	3.635000000000E-01	1.229376151346E-16
	O62	O	9.090000000000E-02	2.273000000000E-01	1.818000000000E-01
	O63	O	-4.091000000000E-01	-2.727000000000E-01	1.818000000000E-01
	O64	O	-4.091000000000E-01	2.273000000000E-01	1.818000000000E-01
	O65	O	-5.551115123126E-17	-5.000000000000E-01	2.730000000000E-01
	O66	O	-9.090000000000E-02	4.091000000000E-01	-1.818000000000E-01
	O67	O	4.091000000000E-01	-9.090000000000E-02	-1.818000000000E-01
	O68	O	4.091000000000E-01	4.091000000000E-01	-1.818000000000E-01
	O69	O	1.365000000000E-01	-5.000000000000E-01	-1.110223024625E-16
	O70	O	-9.090000000000E-02	4.091000000000E-01	-4.546000000000E-01
	O71	O	4.091000000000E-01	-9.090000000000E-02	-4.546000000000E-01
	O72	O	4.091000000000E-01	4.091000000000E-01	-4.546000000000E-01
	O73	O	-3.635000000000E-01	0.000000000000E+00	0.000000000000E+00
	O74	O	-9.090000000000E-02	-2.273000000000E-01	-1.818000000000E-01
	O75	O	4.091000000000E-01	2.727000000000E-01	-1.818000000000E-01
	O76	O	4.091000000000E-01	-2.273000000000E-01	-1.818000000000E-01
	O77	O	-3.635000000000E-01	-5.000000000000E-01	0.000000000000E+00
	O78	O	2.727000000000E-01	4.091000000000E-01	-1.818000000000E-01
	O79	O	-2.273000000000E-01	-9.090000000000E-02	-1.818000000000E-01
	O80	O	-2.273000000000E-01	4.091000000000E-01	-1.818000000000E-01
	O81	O	0.000000000000E+00	-5.000000000000E-01	-2.730000000000E-01
	Si82	Si	5.685000000000E-02	-4.431500000000E-01	1.137000000000E-01
	Si83	Si	-4.431500000000E-01	5.685000000000E-02	1.137000000000E-01
	Si84	Si	-4.431500000000E-01	-4.431500000000E-01	1.137000000000E-01
	O85	O	0.000000000000E+00	-3.635000000000E-01	0.000000000000E+00
	Si86	Si	5.685000000000E-02	-4.431500000000E-01	-3.411000000000E-01
	Si87	Si	-4.431500000000E-01	5.685000000000E-02	-3.411000000000E-01
	Si88	Si	-4.431500000000E-01	-4.431500000000E-01	-3.411000000000E-01
	O89	O	-5.000000000000E-01	1.365000000000E-01	-1.110223024625E-16
	Si90	Si	-1.705500000000E-01	-4.431500000000E-01	1.137000000000E-01
	Si91	Si	3.294500000000E-01	5.685000000000E-02	1.137000000000E-01
	Si92	Si	3.294500000000E-01	-4.431500000000E-01	1.137000000000E-01
	O93	O	-5.000000000000E-01	-3.635000000000E-01	1.110223024625E-16
	Si94	Si	5.685000000000E-02	3.294500000000E-01	1.137000000000E-01
	Si95	Si	-4.431500000000E-01	-1.705500000000E-01	1.137000000000E-01
	Si96	Si	-4.431500000000E-01	3.294500000000E-01	1.137000000000E-01
	O97	O	-5.000000000000E-01	0.000000000000E+00	-2.730000000000E-01
	Si98	Si	-5.685000000000E-02	4.431500000000E-01	-1.137000000000E-01
	Si99	Si	4.431500000000E-01	-5.685000000000E-02	-1.137000000000E-01
	Si100	Si	4.431500000000E-01	4.431500000000E-01	-1.137000000000E-01
	O101	O	2.775557561563E-17	-3.635000000000E-01	-2.730000000000E-01
	Si102	Si	-5.685000000000E-02	4.431500000000E-01	3.411000000000E-01
	Si103	Si	4.431500000000E-01	-5.685000000000E-02	3.411000000000E-01
	Si104	Si	4.431500000000E-01	4.431500000000E-01	3.411000000000E-01
	O105	O	-5.000000000000E-01	1.365000000000E-01	-2.730000000000E-01
	Si106	Si	-5.685000000000E-02	-3.294500000000E-01	-1.137000000000E-01
	Si107	Si	4.431500000000E-01	1.705500000000E-01	-1.137000000000E-01
	Si108	Si	4.431500000000E-01	-3.294500000000E-01	-1.137000000000E-01
	O109	O	-5.000000000000E-01	-3.635000000000E-01	-2.730000000000E-01
	Si110	Si	1.705500000000E-01	4.431500000000E-01	-1.137000000000E-01
	Si111	Si	-3.294500000000E-01	-5.685000000000E-02	-1.137000000000E-01
	Si112	Si	-3.294500000000E-01	4.431500000000E-01	-1.137000000000E-01
	O113	O	-5.000000000000E-01	-5.000000000000E-01	-2.730000000000E-01
	Si114	Si	-1.250000000000E-01	3.750000000000E-01	-2.500000000000E-01
	Si115	Si	3.750000000000E-01	-1.250000000000E-01	-2.500000000000E-01
	Si116	Si	3.750000000000E-01	3.750000000000E-01	-2.500000000000E-01
	O117	O	0.000000000000E+00	3.635000000000E-01	0.000000000000E+00
	Si118	Si	-3.750000000000E-01	-3.750000000000E-01	2.500000000000E-01
	Si119	Si	1.250000000000E-01	1.250000000000E-01	2.500000000000E-01
	Si120	Si	1.250000000000E-01	-3.750000000000E-01	2.500000000000E-01
