data ASV
_chemical_name_common		'ASV'
_cell_length_a		8.67400000
_cell_length_b		8.67400000
_cell_length_c		27.83800000
_cell_angle_alpha		90.000000
_cell_angle_beta		90.000000
_cell_angle_gamma		90.000000
_space group_name_H-M_alt		'P 1'
_space_group_IT_number		1

loop_
	_atom_site_label
	_atom_site_type_symbol
	_atom_site_fract_x
	_atom_site_fract_y
	_atom_site_fract_z
	O1	O	1.089000000000E-01	-3.926000000000E-01	1.589000000000E-01
	O2	O	-1.089000000000E-01	3.926000000000E-01	1.589000000000E-01
	O3	O	1.089000000000E-01	3.926000000000E-01	9.110000000000E-02
	O4	O	-1.089000000000E-01	-3.926000000000E-01	9.110000000000E-02
	O5	O	3.926000000000E-01	-1.089000000000E-01	9.110000000000E-02
	O6	O	-3.926000000000E-01	1.089000000000E-01	9.110000000000E-02
	O7	O	-3.926000000000E-01	-1.089000000000E-01	1.589000000000E-01
	O8	O	3.926000000000E-01	1.089000000000E-01	1.589000000000E-01
	O9	O	-1.089000000000E-01	3.926000000000E-01	-1.589000000000E-01
	O10	O	1.089000000000E-01	-3.926000000000E-01	-1.589000000000E-01
	O11	O	-1.089000000000E-01	-3.926000000000E-01	-9.110000000000E-02
	O12	O	1.089000000000E-01	3.926000000000E-01	-9.110000000000E-02
	O13	O	-3.926000000000E-01	1.089000000000E-01	-9.110000000000E-02
	O14	O	3.926000000000E-01	-1.089000000000E-01	-9.110000000000E-02
	O15	O	3.926000000000E-01	1.089000000000E-01	-1.589000000000E-01
	O16	O	-3.926000000000E-01	-1.089000000000E-01	-1.589000000000E-01
	O17	O	1.985000000000E-01	4.155000000000E-01	0.000000000000E+00
	O18	O	-1.985000000000E-01	-4.155000000000E-01	0.000000000000E+00
	O19	O	1.985000000000E-01	-4.155000000000E-01	2.500000000000E-01
	O20	O	-1.985000000000E-01	4.155000000000E-01	2.500000000000E-01
	O21	O	-4.155000000000E-01	-1.985000000000E-01	2.500000000000E-01
	O22	O	4.155000000000E-01	1.985000000000E-01	2.500000000000E-01
	O23	O	4.155000000000E-01	-1.985000000000E-01	0.000000000000E+00
	O24	O	-4.155000000000E-01	1.985000000000E-01	0.000000000000E+00
	O25	O	3.938000000000E-01	3.110000000000E-01	6.605000000000E-02
	O26	O	-3.938000000000E-01	-3.110000000000E-01	6.605000000000E-02
	O27	O	3.938000000000E-01	-3.110000000000E-01	1.839500000000E-01
	O28	O	-3.938000000000E-01	3.110000000000E-01	1.839500000000E-01
	O29	O	-3.110000000000E-01	-3.938000000000E-01	1.839500000000E-01
	O30	O	3.110000000000E-01	3.938000000000E-01	1.839500000000E-01
	O31	O	3.110000000000E-01	-3.938000000000E-01	6.605000000000E-02
	O32	O	-3.110000000000E-01	3.938000000000E-01	6.605000000000E-02
	O33	O	-3.938000000000E-01	-3.110000000000E-01	-6.605000000000E-02
	O34	O	3.938000000000E-01	3.110000000000E-01	-6.605000000000E-02
	O35	O	-3.938000000000E-01	3.110000000000E-01	-1.839500000000E-01
	O36	O	3.938000000000E-01	-3.110000000000E-01	-1.839500000000E-01
	O37	O	3.110000000000E-01	3.938000000000E-01	-1.839500000000E-01
	O38	O	-3.110000000000E-01	-3.938000000000E-01	-1.839500000000E-01
	O39	O	-3.110000000000E-01	3.938000000000E-01	-6.605000000000E-02
	O40	O	3.110000000000E-01	-3.938000000000E-01	-6.605000000000E-02
	Si41	Si	2.534000000000E-01	4.308000000000E-01	5.570000000000E-02
	Si42	Si	-2.534000000000E-01	-4.308000000000E-01	5.570000000000E-02
	Si43	Si	2.534000000000E-01	-4.308000000000E-01	1.943000000000E-01
	Si44	Si	-2.534000000000E-01	4.308000000000E-01	1.943000000000E-01
	Si45	Si	-4.308000000000E-01	-2.534000000000E-01	1.943000000000E-01
	Si46	Si	4.308000000000E-01	2.534000000000E-01	1.943000000000E-01
	Si47	Si	4.308000000000E-01	-2.534000000000E-01	5.570000000000E-02
	Si48	Si	-4.308000000000E-01	2.534000000000E-01	5.570000000000E-02
	Si49	Si	-2.534000000000E-01	-4.308000000000E-01	-5.570000000000E-02
	Si50	Si	2.534000000000E-01	4.308000000000E-01	-5.570000000000E-02
	Si51	Si	-2.534000000000E-01	4.308000000000E-01	-1.943000000000E-01
	Si52	Si	2.534000000000E-01	-4.308000000000E-01	-1.943000000000E-01
	Si53	Si	4.308000000000E-01	2.534000000000E-01	-1.943000000000E-01
	Si54	Si	-4.308000000000E-01	-2.534000000000E-01	-1.943000000000E-01
	Si55	Si	-4.308000000000E-01	2.534000000000E-01	-5.570000000000E-02
	Si56	Si	4.308000000000E-01	-2.534000000000E-01	-5.570000000000E-02
	Si57	Si	0.000000000000E+00	5.000000000000E-01	1.250000000000E-01
	Si58	Si	5.000000000000E-01	0.000000000000E+00	1.250000000000E-01
	Si59	Si	0.000000000000E+00	5.000000000000E-01	-1.250000000000E-01
	Si60	Si	5.000000000000E-01	0.000000000000E+00	-1.250000000000E-01
	O61	O	3.926000000000E-01	1.089000000000E-01	-3.411000000000E-01
	O62	O	3.110000000000E-01	-3.938000000000E-01	-4.339500000000E-01
	O63	O	-3.926000000000E-01	-1.089000000000E-01	3.411000000000E-01
	O64	O	-3.110000000000E-01	3.938000000000E-01	-4.339500000000E-01
	O65	O	1.089000000000E-01	-3.926000000000E-01	-3.411000000000E-01
	O66	O	-3.938000000000E-01	-3.110000000000E-01	4.339500000000E-01
	O67	O	1.985000000000E-01	4.155000000000E-01	-5.000000000000E-01
	O68	O	3.938000000000E-01	3.110000000000E-01	4.339500000000E-01
	O69	O	-1.089000000000E-01	3.926000000000E-01	3.411000000000E-01
	O70	O	-3.938000000000E-01	3.110000000000E-01	3.160500000000E-01
	O71	O	-1.985000000000E-01	-4.155000000000E-01	-5.000000000000E-01
	O72	O	3.938000000000E-01	-3.110000000000E-01	3.160500000000E-01
	O73	O	3.926000000000E-01	-1.089000000000E-01	-4.089000000000E-01
	O74	O	3.110000000000E-01	3.938000000000E-01	3.160500000000E-01
	O75	O	1.985000000000E-01	-4.155000000000E-01	-2.500000000000E-01
	O76	O	-3.110000000000E-01	-3.938000000000E-01	3.160500000000E-01
	O77	O	1.089000000000E-01	-3.926000000000E-01	3.411000000000E-01
	O78	O	-3.110000000000E-01	3.938000000000E-01	4.339500000000E-01
	O79	O	-1.985000000000E-01	4.155000000000E-01	-2.500000000000E-01
	O80	O	3.110000000000E-01	-3.938000000000E-01	4.339500000000E-01
	O81	O	1.089000000000E-01	3.926000000000E-01	-4.089000000000E-01
	Si82	Si	2.534000000000E-01	4.308000000000E-01	-4.443000000000E-01
	O83	O	-4.155000000000E-01	-1.985000000000E-01	-2.500000000000E-01
	Si84	Si	-2.534000000000E-01	-4.308000000000E-01	-4.443000000000E-01
	O85	O	-1.089000000000E-01	-3.926000000000E-01	4.089000000000E-01
	Si86	Si	2.534000000000E-01	-4.308000000000E-01	-3.057000000000E-01
	O87	O	4.155000000000E-01	1.985000000000E-01	-2.500000000000E-01
	Si88	Si	-2.534000000000E-01	4.308000000000E-01	-3.057000000000E-01
	O89	O	-3.926000000000E-01	1.089000000000E-01	-4.089000000000E-01
	Si90	Si	-4.308000000000E-01	-2.534000000000E-01	-3.057000000000E-01
	O91	O	4.155000000000E-01	-1.985000000000E-01	-5.000000000000E-01
	Si92	Si	4.308000000000E-01	2.534000000000E-01	-3.057000000000E-01
	O93	O	1.089000000000E-01	3.926000000000E-01	4.089000000000E-01
	Si94	Si	4.308000000000E-01	-2.534000000000E-01	-4.443000000000E-01
	O95	O	-4.155000000000E-01	1.985000000000E-01	-5.000000000000E-01
	Si96	Si	-4.308000000000E-01	2.534000000000E-01	-4.443000000000E-01
	O97	O	-1.089000000000E-01	3.926000000000E-01	-3.411000000000E-01
	Si98	Si	-2.534000000000E-01	-4.308000000000E-01	4.443000000000E-01
	O99	O	3.938000000000E-01	3.110000000000E-01	-4.339500000000E-01
	Si100	Si	2.534000000000E-01	4.308000000000E-01	4.443000000000E-01
	O101	O	-3.926000000000E-01	1.089000000000E-01	4.089000000000E-01
	Si102	Si	-2.534000000000E-01	4.308000000000E-01	3.057000000000E-01
	O103	O	-3.938000000000E-01	-3.110000000000E-01	-4.339500000000E-01
	Si104	Si	2.534000000000E-01	-4.308000000000E-01	3.057000000000E-01
	O105	O	-3.926000000000E-01	-1.089000000000E-01	-3.411000000000E-01
	Si106	Si	4.308000000000E-01	2.534000000000E-01	3.057000000000E-01
	O107	O	3.938000000000E-01	-3.110000000000E-01	-3.160500000000E-01
	Si108	Si	-4.308000000000E-01	-2.534000000000E-01	3.057000000000E-01
	O109	O	3.926000000000E-01	-1.089000000000E-01	4.089000000000E-01
	Si110	Si	-4.308000000000E-01	2.534000000000E-01	4.443000000000E-01
	O111	O	-3.938000000000E-01	3.110000000000E-01	-3.160500000000E-01
	Si112	Si	4.308000000000E-01	-2.534000000000E-01	4.443000000000E-01
	O113	O	-1.089000000000E-01	-3.926000000000E-01	-4.089000000000E-01
	Si114	Si	0.000000000000E+00	5.000000000000E-01	-3.750000000000E-01
	O115	O	-3.110000000000E-01	-3.938000000000E-01	-3.160500000000E-01
	Si116	Si	5.000000000000E-01	0.000000000000E+00	-3.750000000000E-01
	O117	O	3.926000000000E-01	1.089000000000E-01	3.411000000000E-01
	Si118	Si	0.000000000000E+00	5.000000000000E-01	3.750000000000E-01
	O119	O	3.110000000000E-01	3.938000000000E-01	-3.160500000000E-01
	Si120	Si	5.000000000000E-01	0.000000000000E+00	3.750000000000E-01
