data ATN
_chemical_name_common		'ATN'
_cell_length_a		19.21789838
_cell_length_b		19.21789838
_cell_length_c		9.60894919
_cell_angle_alpha		94.289704
_cell_angle_beta		94.289704
_cell_angle_gamma		148.255302
_space group_name_H-M_alt		'P 1'
_space_group_IT_number		1

loop_
	_atom_site_label
	_atom_site_type_symbol
	_atom_site_fract_x
	_atom_site_fract_y
	_atom_site_fract_z
	O1	O	-5.335000000000E-02	5.335000000000E-02	5.000000000000E-01
	O2	O	-1.966500000000E-01	-3.033500000000E-01	5.000000000000E-01
	O3	O	5.335000000000E-02	-1.966500000000E-01	2.134000000000E-01
	O4	O	-3.033500000000E-01	-5.335000000000E-02	-2.134000000000E-01
	O5	O	5.335000000000E-02	-5.335000000000E-02	5.000000000000E-01
	O6	O	-3.033500000000E-01	-1.966500000000E-01	5.000000000000E-01
	O7	O	-5.335000000000E-02	-3.033500000000E-01	-2.134000000000E-01
	O8	O	-1.966500000000E-01	5.335000000000E-02	2.134000000000E-01
	O9	O	-3.790500000000E-01	2.500000000000E-01	-2.581000000000E-01
	O10	O	-1.209500000000E-01	2.500000000000E-01	2.581000000000E-01
	O11	O	2.500000000000E-01	-1.209500000000E-01	2.581000000000E-01
	O12	O	2.500000000000E-01	-3.790500000000E-01	-2.581000000000E-01
	O13	O	-3.441000000000E-01	-3.441000000000E-01	-3.764000000000E-01
	O14	O	-1.559000000000E-01	-1.559000000000E-01	3.764000000000E-01
	O15	O	-1.559000000000E-01	-3.441000000000E-01	0.000000000000E+00
	O16	O	-3.441000000000E-01	-1.559000000000E-01	-8.326672684689E-17
	Si17	Si	-3.949500000000E-01	-3.095000000000E-01	-4.089000000000E-01
	Si18	Si	-1.050500000000E-01	-1.905000000000E-01	4.089000000000E-01
	Si19	Si	-1.050500000000E-01	-3.095000000000E-01	1.709000000000E-01
	Si20	Si	-3.949500000000E-01	-1.905000000000E-01	-1.709000000000E-01
	Si21	Si	-1.905000000000E-01	-1.050500000000E-01	4.089000000000E-01
	Si22	Si	-3.095000000000E-01	-3.949500000000E-01	-4.089000000000E-01
	Si23	Si	-1.905000000000E-01	-3.949500000000E-01	-1.709000000000E-01
	Si24	Si	-3.095000000000E-01	-1.050500000000E-01	1.709000000000E-01
	O25	O	3.033500000000E-01	-3.033500000000E-01	5.000000000000E-01
	O26	O	-5.335000000000E-02	1.966500000000E-01	-2.134000000000E-01
	O27	O	4.466500000000E-01	-3.033500000000E-01	-2.134000000000E-01
	O28	O	4.466500000000E-01	1.966500000000E-01	-2.134000000000E-01
	O29	O	3.033500000000E-01	1.966500000000E-01	5.000000000000E-01
	O30	O	-1.966500000000E-01	-4.466500000000E-01	2.134000000000E-01
	O31	O	3.033500000000E-01	5.335000000000E-02	2.134000000000E-01
	O32	O	3.033500000000E-01	-4.466500000000E-01	2.134000000000E-01
	O33	O	4.466500000000E-01	5.335000000000E-02	-5.000000000000E-01
	O34	O	-3.790500000000E-01	-2.500000000000E-01	-2.581000000000E-01
	O35	O	1.209500000000E-01	2.500000000000E-01	-2.581000000000E-01
	O36	O	1.209500000000E-01	-2.500000000000E-01	-2.581000000000E-01
	O37	O	5.335000000000E-02	3.033500000000E-01	2.134000000000E-01
	O38	O	-1.209500000000E-01	-2.500000000000E-01	2.581000000000E-01
	O39	O	3.790500000000E-01	2.500000000000E-01	2.581000000000E-01
	O40	O	3.790500000000E-01	-2.500000000000E-01	2.581000000000E-01
	O41	O	-4.466500000000E-01	-1.966500000000E-01	2.134000000000E-01
	O42	O	2.500000000000E-01	3.790500000000E-01	2.581000000000E-01
	O43	O	-2.500000000000E-01	-1.209500000000E-01	2.581000000000E-01
	O44	O	-2.500000000000E-01	3.790500000000E-01	2.581000000000E-01
	O45	O	-4.466500000000E-01	3.033500000000E-01	2.134000000000E-01
	O46	O	2.500000000000E-01	1.209500000000E-01	-2.581000000000E-01
	O47	O	-2.500000000000E-01	-3.790500000000E-01	-2.581000000000E-01
	O48	O	-2.500000000000E-01	1.209500000000E-01	-2.581000000000E-01
	O49	O	4.466500000000E-01	-4.466500000000E-01	-5.000000000000E-01
	O50	O	-3.441000000000E-01	1.559000000000E-01	-3.764000000000E-01
	O51	O	1.559000000000E-01	-3.441000000000E-01	-3.764000000000E-01
	O52	O	1.559000000000E-01	1.559000000000E-01	-3.764000000000E-01
	O53	O	-3.033500000000E-01	4.466500000000E-01	-2.134000000000E-01
	O54	O	-1.559000000000E-01	3.441000000000E-01	3.764000000000E-01
	O55	O	3.441000000000E-01	-1.559000000000E-01	3.764000000000E-01
	O56	O	3.441000000000E-01	3.441000000000E-01	3.764000000000E-01
	O57	O	1.966500000000E-01	-5.335000000000E-02	-2.134000000000E-01
	O58	O	-1.559000000000E-01	1.559000000000E-01	0.000000000000E+00
	O59	O	3.441000000000E-01	-3.441000000000E-01	0.000000000000E+00
	O60	O	3.441000000000E-01	1.559000000000E-01	0.000000000000E+00
	O61	O	1.966500000000E-01	4.466500000000E-01	-2.134000000000E-01
	O62	O	-3.441000000000E-01	3.441000000000E-01	0.000000000000E+00
	O63	O	1.559000000000E-01	-1.559000000000E-01	-1.110223024625E-16
	O64	O	1.559000000000E-01	3.441000000000E-01	-1.665334536938E-16
	O65	O	-5.335000000000E-02	-4.466500000000E-01	5.000000000000E-01
	Si66	Si	-3.949500000000E-01	1.905000000000E-01	-4.089000000000E-01
	Si67	Si	1.050500000000E-01	-3.095000000000E-01	-4.089000000000E-01
	Si68	Si	1.050500000000E-01	1.905000000000E-01	-4.089000000000E-01
	O69	O	5.335000000000E-02	4.466500000000E-01	5.000000000000E-01
	Si70	Si	-1.050500000000E-01	3.095000000000E-01	4.089000000000E-01
	Si71	Si	3.949500000000E-01	-1.905000000000E-01	4.089000000000E-01
	Si72	Si	3.949500000000E-01	3.095000000000E-01	4.089000000000E-01
	O73	O	-4.466500000000E-01	-5.335000000000E-02	5.000000000000E-01
	Si74	Si	-1.050500000000E-01	1.905000000000E-01	1.709000000000E-01
	Si75	Si	3.949500000000E-01	-3.095000000000E-01	1.709000000000E-01
	Si76	Si	3.949500000000E-01	1.905000000000E-01	1.709000000000E-01
	O77	O	-4.466500000000E-01	4.466500000000E-01	-5.000000000000E-01
	Si78	Si	-3.949500000000E-01	3.095000000000E-01	-1.709000000000E-01
	Si79	Si	1.050500000000E-01	-1.905000000000E-01	-1.709000000000E-01
	Si80	Si	1.050500000000E-01	3.095000000000E-01	-1.709000000000E-01
	O81	O	-1.966500000000E-01	1.966500000000E-01	-5.000000000000E-01
	Si82	Si	-1.905000000000E-01	3.949500000000E-01	4.089000000000E-01
	Si83	Si	3.095000000000E-01	-1.050500000000E-01	4.089000000000E-01
	Si84	Si	3.095000000000E-01	3.949500000000E-01	4.089000000000E-01
	O85	O	-3.033500000000E-01	3.033500000000E-01	5.000000000000E-01
	Si86	Si	-3.095000000000E-01	1.050500000000E-01	-4.089000000000E-01
	Si87	Si	1.905000000000E-01	-3.949500000000E-01	-4.089000000000E-01
	Si88	Si	1.905000000000E-01	1.050500000000E-01	-4.089000000000E-01
	O89	O	1.966500000000E-01	-1.966500000000E-01	5.000000000000E-01
	Si90	Si	-1.905000000000E-01	1.050500000000E-01	-1.709000000000E-01
	Si91	Si	3.095000000000E-01	-3.949500000000E-01	-1.709000000000E-01
	Si92	Si	3.095000000000E-01	1.050500000000E-01	-1.709000000000E-01
	O93	O	1.966500000000E-01	3.033500000000E-01	5.000000000000E-01
	Si94	Si	-3.095000000000E-01	3.949500000000E-01	1.709000000000E-01
	Si95	Si	1.905000000000E-01	-1.050500000000E-01	1.709000000000E-01
	Si96	Si	1.905000000000E-01	3.949500000000E-01	1.709000000000E-01
