data ATS
_chemical_name_common		'ATS'
_cell_length_a		25.28161292
_cell_length_b		12.64080646
_cell_length_c		5.25700000
_cell_angle_alpha		90.000000
_cell_angle_beta		90.000000
_cell_angle_gamma		62.757714
_space group_name_H-M_alt		'P 1'
_space_group_IT_number		1

loop_
	_atom_site_label
	_atom_site_type_symbol
	_atom_site_fract_x
	_atom_site_fract_y
	_atom_site_fract_z
	O1	O	-1.051000000000E-01	4.126000000000E-01	-2.500000000000E-01
	O2	O	1.051000000000E-01	-4.126000000000E-01	2.500000000000E-01
	O3	O	-2.063000000000E-01	2.102000000000E-01	2.500000000000E-01
	O4	O	2.063000000000E-01	-2.102000000000E-01	-2.500000000000E-01
	O5	O	-1.794500000000E-01	3.589000000000E-01	-5.000000000000E-01
	O6	O	1.794500000000E-01	-3.589000000000E-01	-1.110223024625E-16
	O7	O	1.794500000000E-01	-3.589000000000E-01	-5.000000000000E-01
	O8	O	-1.794500000000E-01	3.589000000000E-01	2.220446049250E-16
	O9	O	-2.194000000000E-01	-4.388000000000E-01	-2.500000000000E-01
	O10	O	-2.806000000000E-01	4.388000000000E-01	2.500000000000E-01
	O11	O	2.830000000000E-01	-1.630000000000E-01	0.000000000000E+00
	O12	O	-2.830000000000E-01	1.630000000000E-01	-5.000000000000E-01
	O13	O	8.150000000000E-02	4.340000000000E-01	0.000000000000E+00
	O14	O	-8.150000000000E-02	-4.340000000000E-01	-5.000000000000E-01
	O15	O	-2.830000000000E-01	1.630000000000E-01	0.000000000000E+00
	O16	O	2.830000000000E-01	-1.630000000000E-01	-5.000000000000E-01
	O17	O	-8.150000000000E-02	-4.340000000000E-01	0.000000000000E+00
	O18	O	8.150000000000E-02	4.340000000000E-01	-5.000000000000E-01
	O19	O	1.950500000000E-01	7.100000000000E-03	-2.500000000000E-01
	O20	O	-1.950500000000E-01	-7.100000000000E-03	2.500000000000E-01
	O21	O	-3.550000000000E-03	-3.901000000000E-01	2.500000000000E-01
	O22	O	3.550000000000E-03	3.901000000000E-01	-2.500000000000E-01
	O23	O	-1.166000000000E-01	-2.332000000000E-01	2.500000000000E-01
	O24	O	1.166000000000E-01	2.332000000000E-01	-2.500000000000E-01
	Si25	Si	-1.710500000000E-01	4.231000000000E-01	-2.500000000000E-01
	Si26	Si	1.710500000000E-01	-4.231000000000E-01	2.500000000000E-01
	Si27	Si	-2.115500000000E-01	3.421000000000E-01	2.500000000000E-01
	Si28	Si	2.115500000000E-01	-3.421000000000E-01	-2.500000000000E-01
	Si29	Si	2.418500000000E-01	-1.321000000000E-01	-2.500000000000E-01
	Si30	Si	-2.418500000000E-01	1.321000000000E-01	2.500000000000E-01
	Si31	Si	6.605000000000E-02	-4.837000000000E-01	2.500000000000E-01
	Si32	Si	-6.605000000000E-02	4.837000000000E-01	-2.500000000000E-01
	Si33	Si	-7.065000000000E-02	-3.731000000000E-01	2.500000000000E-01
	Si34	Si	7.065000000000E-02	3.731000000000E-01	-2.500000000000E-01
	Si35	Si	1.865500000000E-01	1.413000000000E-01	-2.500000000000E-01
	Si36	Si	-1.865500000000E-01	-1.413000000000E-01	2.500000000000E-01
	O37	O	3.205500000000E-01	3.589000000000E-01	-5.000000000000E-01
	O38	O	-3.049500000000E-01	7.100000000000E-03	-2.500000000000E-01
	O39	O	2.194000000000E-01	4.388000000000E-01	2.500000000000E-01
	O40	O	3.049500000000E-01	-7.100000000000E-03	2.500000000000E-01
	O41	O	2.937000000000E-01	2.102000000000E-01	2.500000000000E-01
	O42	O	4.964500000000E-01	-3.901000000000E-01	2.500000000000E-01
	O43	O	-2.170000000000E-01	-1.630000000000E-01	0.000000000000E+00
	O44	O	-4.964500000000E-01	3.901000000000E-01	-2.500000000000E-01
	O45	O	-3.205500000000E-01	-3.589000000000E-01	-1.110223024625E-16
	O46	O	3.834000000000E-01	-2.332000000000E-01	2.500000000000E-01
	O47	O	2.170000000000E-01	1.630000000000E-01	-5.000000000000E-01
	O48	O	-3.834000000000E-01	2.332000000000E-01	-2.500000000000E-01
	O49	O	-3.949000000000E-01	-4.126000000000E-01	2.500000000000E-01
	Si50	Si	3.289500000000E-01	4.231000000000E-01	-2.500000000000E-01
	O51	O	-4.185000000000E-01	4.340000000000E-01	0.000000000000E+00
	Si52	Si	-3.289500000000E-01	-4.231000000000E-01	2.500000000000E-01
	O53	O	-3.205500000000E-01	-3.589000000000E-01	-5.000000000000E-01
	Si54	Si	2.884500000000E-01	3.421000000000E-01	2.500000000000E-01
	O55	O	4.185000000000E-01	-4.340000000000E-01	-5.000000000000E-01
	Si56	Si	-2.884500000000E-01	-3.421000000000E-01	-2.500000000000E-01
	O57	O	-2.937000000000E-01	-2.102000000000E-01	-2.500000000000E-01
	Si58	Si	-2.581500000000E-01	-1.321000000000E-01	-2.500000000000E-01
	O59	O	2.170000000000E-01	1.630000000000E-01	0.000000000000E+00
	Si60	Si	2.581500000000E-01	1.321000000000E-01	2.500000000000E-01
	O61	O	3.205500000000E-01	3.589000000000E-01	2.220446049250E-16
	Si62	Si	-4.339500000000E-01	-4.837000000000E-01	2.500000000000E-01
	O63	O	-2.170000000000E-01	-1.630000000000E-01	-5.000000000000E-01
	Si64	Si	4.339500000000E-01	4.837000000000E-01	-2.500000000000E-01
	O65	O	3.949000000000E-01	4.126000000000E-01	-2.500000000000E-01
	Si66	Si	4.293500000000E-01	-3.731000000000E-01	2.500000000000E-01
	O67	O	4.185000000000E-01	-4.340000000000E-01	0.000000000000E+00
	Si68	Si	-4.293500000000E-01	3.731000000000E-01	-2.500000000000E-01
	O69	O	2.806000000000E-01	-4.388000000000E-01	-2.500000000000E-01
	Si70	Si	-3.134500000000E-01	1.413000000000E-01	-2.500000000000E-01
	O71	O	-4.185000000000E-01	4.340000000000E-01	-5.000000000000E-01
	Si72	Si	3.134500000000E-01	-1.413000000000E-01	2.500000000000E-01
