data ATV
_chemical_name_common		'ATV'
_cell_length_a		8.77533421
_cell_length_b		17.55066842
_cell_length_c		9.66100000
_cell_angle_alpha		90.000000
_cell_angle_beta		90.000000
_cell_angle_gamma		58.525225
_space group_name_H-M_alt		'P 1'
_space_group_IT_number		1

loop_
	_atom_site_label
	_atom_site_type_symbol
	_atom_site_fract_x
	_atom_site_fract_y
	_atom_site_fract_z
	O1	O	3.751000000000E-01	-6.245000000000E-02	-5.000000000000E-01
	O2	O	1.249000000000E-01	-1.875500000000E-01	-5.000000000000E-01
	O3	O	-3.751000000000E-01	6.245000000000E-02	-5.000000000000E-01
	O4	O	-1.249000000000E-01	1.875500000000E-01	-5.000000000000E-01
	O5	O	4.140000000000E-01	-4.280000000000E-02	2.351000000000E-01
	O6	O	8.600000000000E-02	-2.072000000000E-01	2.351000000000E-01
	O7	O	8.560000000000E-02	-2.070000000000E-01	-2.351000000000E-01
	O8	O	4.144000000000E-01	-4.300000000000E-02	-2.351000000000E-01
	O9	O	-4.140000000000E-01	4.280000000000E-02	-2.351000000000E-01
	O10	O	-8.600000000000E-02	2.072000000000E-01	-2.351000000000E-01
	O11	O	-8.560000000000E-02	2.070000000000E-01	2.351000000000E-01
	O12	O	-4.144000000000E-01	4.300000000000E-02	2.351000000000E-01
	O13	O	2.500000000000E-01	-1.250000000000E-01	3.133000000000E-01
	O14	O	2.500000000000E-01	-1.250000000000E-01	-3.133000000000E-01
	O15	O	-2.500000000000E-01	1.250000000000E-01	-3.133000000000E-01
	O16	O	-2.500000000000E-01	1.250000000000E-01	3.133000000000E-01
	O17	O	9.630000000000E-02	4.815000000000E-02	3.498000000000E-01
	O18	O	4.037000000000E-01	2.018500000000E-01	3.498000000000E-01
	O19	O	-9.630000000000E-02	-4.815000000000E-02	-3.498000000000E-01
	O20	O	-4.037000000000E-01	2.981500000000E-01	-3.498000000000E-01
	O21	O	-2.500000000000E-01	-1.250000000000E-01	1.572000000000E-01
	O22	O	2.500000000000E-01	1.250000000000E-01	-1.572000000000E-01
	O23	O	-5.000000000000E-01	6.082861880981E-17	0.000000000000E+00
	O24	O	1.971955285905E-16	2.500000000000E-01	0.000000000000E+00
	Si25	Si	2.837000000000E-01	-4.555000000000E-02	3.497000000000E-01
	Si26	Si	2.163000000000E-01	-2.044500000000E-01	3.497000000000E-01
	Si27	Si	9.110000000000E-02	-1.418500000000E-01	-3.497000000000E-01
	Si28	Si	4.089000000000E-01	-1.081500000000E-01	-3.497000000000E-01
	Si29	Si	-2.837000000000E-01	4.555000000000E-02	-3.497000000000E-01
	Si30	Si	-2.163000000000E-01	2.044500000000E-01	-3.497000000000E-01
	Si31	Si	-9.110000000000E-02	1.418500000000E-01	3.497000000000E-01
	Si32	Si	-4.089000000000E-01	1.081500000000E-01	3.497000000000E-01
	Si33	Si	-4.374000000000E-01	-3.130000000000E-02	1.568000000000E-01
	Si34	Si	-6.260000000000E-02	-2.187000000000E-01	1.568000000000E-01
	Si35	Si	6.260000000000E-02	2.187000000000E-01	-1.568000000000E-01
	Si36	Si	4.374000000000E-01	3.130000000000E-02	-1.568000000000E-01
	O37	O	4.140000000000E-01	4.572000000000E-01	2.351000000000E-01
	O38	O	-9.630000000000E-02	4.518500000000E-01	-3.498000000000E-01
	O39	O	-8.600000000000E-02	-2.928000000000E-01	-2.351000000000E-01
	O40	O	-4.037000000000E-01	-2.018500000000E-01	-3.498000000000E-01
	O41	O	-3.751000000000E-01	-4.375500000000E-01	-5.000000000000E-01
	O42	O	-2.500000000000E-01	3.750000000000E-01	1.572000000000E-01
	O43	O	-8.560000000000E-02	-2.930000000000E-01	2.351000000000E-01
	O44	O	2.500000000000E-01	-3.750000000000E-01	-1.572000000000E-01
	O45	O	8.600000000000E-02	2.928000000000E-01	2.351000000000E-01
	O46	O	5.000000000000E-01	-5.000000000000E-01	0.000000000000E+00
	O47	O	-4.144000000000E-01	-4.570000000000E-01	2.351000000000E-01
	O48	O	3.187725914304E-16	-2.500000000000E-01	0.000000000000E+00
	O49	O	1.249000000000E-01	3.124500000000E-01	-5.000000000000E-01
	Si50	Si	2.837000000000E-01	4.544500000000E-01	3.497000000000E-01
	O51	O	2.500000000000E-01	3.750000000000E-01	3.133000000000E-01
	Si52	Si	2.163000000000E-01	2.955500000000E-01	3.497000000000E-01
	O53	O	8.560000000000E-02	2.930000000000E-01	-2.351000000000E-01
	Si54	Si	9.110000000000E-02	3.581500000000E-01	-3.497000000000E-01
	O55	O	2.500000000000E-01	3.750000000000E-01	-3.133000000000E-01
	Si56	Si	4.089000000000E-01	3.918500000000E-01	-3.497000000000E-01
	O57	O	-1.249000000000E-01	-3.124500000000E-01	-5.000000000000E-01
	Si58	Si	-2.837000000000E-01	-4.544500000000E-01	-3.497000000000E-01
	O59	O	-2.500000000000E-01	-3.750000000000E-01	-3.133000000000E-01
	Si60	Si	-2.163000000000E-01	-2.955500000000E-01	-3.497000000000E-01
	O61	O	4.144000000000E-01	4.570000000000E-01	-2.351000000000E-01
	Si62	Si	-9.110000000000E-02	-3.581500000000E-01	3.497000000000E-01
	O63	O	-2.500000000000E-01	-3.750000000000E-01	3.133000000000E-01
	Si64	Si	-4.089000000000E-01	-3.918500000000E-01	3.497000000000E-01
	O65	O	3.751000000000E-01	4.375500000000E-01	-5.000000000000E-01
	Si66	Si	-4.374000000000E-01	4.687000000000E-01	1.568000000000E-01
	O67	O	9.630000000000E-02	-4.518500000000E-01	3.498000000000E-01
	Si68	Si	-6.260000000000E-02	2.813000000000E-01	1.568000000000E-01
	O69	O	-4.140000000000E-01	-4.572000000000E-01	-2.351000000000E-01
	Si70	Si	6.260000000000E-02	-2.813000000000E-01	-1.568000000000E-01
	O71	O	4.037000000000E-01	-2.981500000000E-01	3.498000000000E-01
	Si72	Si	4.374000000000E-01	-4.687000000000E-01	-1.568000000000E-01
