data AVE
_chemical_name_common		'AVE'
_cell_length_a		21.52838713
_cell_length_b		21.52838713
_cell_length_c		21.52838713
_cell_angle_alpha		34.811988
_cell_angle_beta		34.811988
_cell_angle_gamma		34.811988
_space group_name_H-M_alt		'P 1'
_space_group_IT_number		1

loop_
	_atom_site_label
	_atom_site_type_symbol
	_atom_site_fract_x
	_atom_site_fract_y
	_atom_site_fract_z
	Si1	Si	2.634100000000E-01	2.591000000000E-02	-2.129100000000E-01
	Si2	Si	-2.129100000000E-01	2.634100000000E-01	2.591000000000E-02
	Si3	Si	2.591000000000E-02	-2.129100000000E-01	2.634100000000E-01
	Si4	Si	-2.591000000000E-02	-2.634100000000E-01	2.129100000000E-01
	Si5	Si	-2.634100000000E-01	2.129100000000E-01	-2.591000000000E-02
	Si6	Si	2.129100000000E-01	-2.591000000000E-02	-2.634100000000E-01
	Si7	Si	-2.634100000000E-01	-2.591000000000E-02	2.129100000000E-01
	Si8	Si	2.129100000000E-01	-2.634100000000E-01	-2.591000000000E-02
	Si9	Si	-2.591000000000E-02	2.129100000000E-01	-2.634100000000E-01
	Si10	Si	2.591000000000E-02	2.634100000000E-01	-2.129100000000E-01
	Si11	Si	2.634100000000E-01	-2.129100000000E-01	2.591000000000E-02
	Si12	Si	-2.129100000000E-01	2.591000000000E-02	2.634100000000E-01
	Si13	Si	3.637000000000E-01	-1.555700000000E-01	-3.974100000000E-01
	Si14	Si	-3.974100000000E-01	3.637000000000E-01	-1.555700000000E-01
	Si15	Si	-1.555700000000E-01	-3.974100000000E-01	3.637000000000E-01
	Si16	Si	1.555700000000E-01	-3.637000000000E-01	3.974100000000E-01
	Si17	Si	-3.637000000000E-01	3.974100000000E-01	1.555700000000E-01
	Si18	Si	3.974100000000E-01	1.555700000000E-01	-3.637000000000E-01
	Si19	Si	-3.637000000000E-01	1.555700000000E-01	3.974100000000E-01
	Si20	Si	3.974100000000E-01	-3.637000000000E-01	1.555700000000E-01
	Si21	Si	1.555700000000E-01	3.974100000000E-01	-3.637000000000E-01
	Si22	Si	-1.555700000000E-01	3.637000000000E-01	-3.974100000000E-01
	Si23	Si	3.637000000000E-01	-3.974100000000E-01	-1.555700000000E-01
	Si24	Si	-3.974100000000E-01	-1.555700000000E-01	3.637000000000E-01
	Si25	Si	-4.677500000000E-01	1.157000000000E-02	-2.328700000000E-01
	Si26	Si	-2.328700000000E-01	-4.677500000000E-01	1.157000000000E-02
	Si27	Si	1.157000000000E-02	-2.328700000000E-01	-4.677500000000E-01
	Si28	Si	-1.157000000000E-02	4.677500000000E-01	2.328700000000E-01
	Si29	Si	4.677500000000E-01	2.328700000000E-01	-1.157000000000E-02
	Si30	Si	2.328700000000E-01	-1.157000000000E-02	4.677500000000E-01
	Si31	Si	4.677500000000E-01	-1.157000000000E-02	2.328700000000E-01
	Si32	Si	2.328700000000E-01	4.677500000000E-01	-1.157000000000E-02
	Si33	Si	-1.157000000000E-02	2.328700000000E-01	4.677500000000E-01
	Si34	Si	1.157000000000E-02	-4.677500000000E-01	-2.328700000000E-01
	Si35	Si	-4.677500000000E-01	-2.328700000000E-01	1.157000000000E-02
	Si36	Si	-2.328700000000E-01	1.157000000000E-02	-4.677500000000E-01
	Si37	Si	2.866000000000E-01	-2.352900000000E-01	-4.749800000000E-01
	Si38	Si	-4.749800000000E-01	2.866000000000E-01	-2.352900000000E-01
	Si39	Si	-2.352900000000E-01	-4.749800000000E-01	2.866000000000E-01
	Si40	Si	2.352900000000E-01	-2.866000000000E-01	4.749800000000E-01
	Si41	Si	-2.866000000000E-01	4.749800000000E-01	2.352900000000E-01
	Si42	Si	4.749800000000E-01	2.352900000000E-01	-2.866000000000E-01
	Si43	Si	-2.866000000000E-01	2.352900000000E-01	4.749800000000E-01
	Si44	Si	4.749800000000E-01	-2.866000000000E-01	2.352900000000E-01
	Si45	Si	2.352900000000E-01	4.749800000000E-01	-2.866000000000E-01
	Si46	Si	-2.352900000000E-01	2.866000000000E-01	-4.749800000000E-01
	Si47	Si	2.866000000000E-01	-4.749800000000E-01	-2.352900000000E-01
	Si48	Si	-4.749800000000E-01	-2.352900000000E-01	2.866000000000E-01
	O49	O	1.276600000000E-01	-1.684400000000E-01	1.276600000000E-01
	O50	O	1.276600000000E-01	1.276600000000E-01	-1.684400000000E-01
	O51	O	-1.684400000000E-01	1.276600000000E-01	1.276600000000E-01
	O52	O	1.684400000000E-01	-1.276600000000E-01	-1.276600000000E-01
	O53	O	-1.276600000000E-01	-1.276600000000E-01	1.684400000000E-01
	O54	O	-1.276600000000E-01	1.684400000000E-01	-1.276600000000E-01
	O55	O	3.599600000000E-01	7.488000000000E-02	-3.127700000000E-01
	O56	O	-3.127700000000E-01	3.599600000000E-01	7.488000000000E-02
	O57	O	7.488000000000E-02	-3.127700000000E-01	3.599600000000E-01
	O58	O	-7.488000000000E-02	-3.599600000000E-01	3.127700000000E-01
	O59	O	-3.599600000000E-01	3.127700000000E-01	-7.488000000000E-02
	O60	O	3.127700000000E-01	-7.488000000000E-02	-3.599600000000E-01
	O61	O	-3.599600000000E-01	-7.488000000000E-02	3.127700000000E-01
	O62	O	3.127700000000E-01	-3.599600000000E-01	-7.488000000000E-02
	O63	O	-7.488000000000E-02	3.127700000000E-01	-3.599600000000E-01
	O64	O	7.488000000000E-02	3.599600000000E-01	-3.127700000000E-01
	O65	O	3.599600000000E-01	-3.127700000000E-01	7.488000000000E-02
	O66	O	-3.127700000000E-01	7.488000000000E-02	3.599600000000E-01
	O67	O	-2.735400000000E-01	2.735400000000E-01	3.600509143032E-17
	O68	O	-3.657717324356E-17	-2.735400000000E-01	2.735400000000E-01
	O69	O	2.735400000000E-01	-4.326472285727E-17	-2.735400000000E-01
	O70	O	2.735400000000E-01	-2.735400000000E-01	-3.604316492225E-17
	O71	O	3.657717324356E-17	2.735400000000E-01	-2.735400000000E-01
	O72	O	-2.735400000000E-01	4.326472285727E-17	2.735400000000E-01
	O73	O	-9.801000000000E-02	2.924700000000E-01	-9.801000000000E-02
	O74	O	-9.801000000000E-02	-9.801000000000E-02	2.924700000000E-01
	O75	O	2.924700000000E-01	-9.801000000000E-02	-9.801000000000E-02
	O76	O	-2.924700000000E-01	9.801000000000E-02	9.801000000000E-02
	O77	O	9.801000000000E-02	9.801000000000E-02	-2.924700000000E-01
	O78	O	9.801000000000E-02	-2.924700000000E-01	9.801000000000E-02
	O79	O	2.876200000000E-01	-7.857000000000E-02	-4.572200000000E-01
	O80	O	-4.572200000000E-01	2.876200000000E-01	-7.857000000000E-02
	O81	O	-7.857000000000E-02	-4.572200000000E-01	2.876200000000E-01
	O82	O	7.857000000000E-02	-2.876200000000E-01	4.572200000000E-01
	O83	O	-2.876200000000E-01	4.572200000000E-01	7.857000000000E-02
	O84	O	4.572200000000E-01	7.857000000000E-02	-2.876200000000E-01
	O85	O	-2.876200000000E-01	7.857000000000E-02	4.572200000000E-01
	O86	O	4.572200000000E-01	-2.876200000000E-01	7.857000000000E-02
	O87	O	7.857000000000E-02	4.572200000000E-01	-2.876200000000E-01
	O88	O	-7.857000000000E-02	2.876200000000E-01	-4.572200000000E-01
	O89	O	2.876200000000E-01	-4.572200000000E-01	-7.857000000000E-02
	O90	O	-4.572200000000E-01	-7.857000000000E-02	2.876200000000E-01
	O91	O	-4.943400000000E-01	-1.902500000000E-01	-4.943400000000E-01
	O92	O	-4.943400000000E-01	-4.943400000000E-01	-1.902500000000E-01
	O93	O	-1.902500000000E-01	-4.943400000000E-01	-4.943400000000E-01
	O94	O	1.902500000000E-01	4.943400000000E-01	4.943400000000E-01
	O95	O	4.943400000000E-01	4.943400000000E-01	1.902500000000E-01
	O96	O	4.943400000000E-01	1.902500000000E-01	4.943400000000E-01
	O97	O	-2.781900000000E-01	3.478100000000E-01	-2.781900000000E-01
	O98	O	-2.781900000000E-01	-2.781900000000E-01	3.478100000000E-01
	O99	O	3.478100000000E-01	-2.781900000000E-01	-2.781900000000E-01
	O100	O	-3.478100000000E-01	2.781900000000E-01	2.781900000000E-01
	O101	O	2.781900000000E-01	2.781900000000E-01	-3.478100000000E-01
	O102	O	2.781900000000E-01	-3.478100000000E-01	2.781900000000E-01
	O103	O	-3.243000000000E-01	-3.583000000000E-02	-3.243000000000E-01
	O104	O	-3.243000000000E-01	-3.243000000000E-01	-3.583000000000E-02
	O105	O	-3.583000000000E-02	-3.243000000000E-01	-3.243000000000E-01
	O106	O	3.583000000000E-02	3.243000000000E-01	3.243000000000E-01
	O107	O	3.243000000000E-01	3.243000000000E-01	3.583000000000E-02
	O108	O	3.243000000000E-01	3.583000000000E-02	3.243000000000E-01
	O109	O	-1.014700000000E-01	-4.951400000000E-01	-1.014700000000E-01
	O110	O	-1.014700000000E-01	-1.014700000000E-01	-4.951400000000E-01
	O111	O	-4.951400000000E-01	-1.014700000000E-01	-1.014700000000E-01
	O112	O	4.951400000000E-01	1.014700000000E-01	1.014700000000E-01
	O113	O	1.014700000000E-01	1.014700000000E-01	4.951400000000E-01
	O114	O	1.014700000000E-01	4.951400000000E-01	1.014700000000E-01
	O115	O	4.902500000000E-01	1.061700000000E-01	-2.189000000000E-01
	O116	O	-2.189000000000E-01	4.902500000000E-01	1.061700000000E-01
	O117	O	1.061700000000E-01	-2.189000000000E-01	4.902500000000E-01
	O118	O	-1.061700000000E-01	-4.902500000000E-01	2.189000000000E-01
	O119	O	-4.902500000000E-01	2.189000000000E-01	-1.061700000000E-01
	O120	O	2.189000000000E-01	-1.061700000000E-01	-4.902500000000E-01
	O121	O	-4.902500000000E-01	-1.061700000000E-01	2.189000000000E-01
	O122	O	2.189000000000E-01	-4.902500000000E-01	-1.061700000000E-01
	O123	O	-1.061700000000E-01	2.189000000000E-01	-4.902500000000E-01
	O124	O	1.061700000000E-01	4.902500000000E-01	-2.189000000000E-01
	O125	O	4.902500000000E-01	-2.189000000000E-01	1.061700000000E-01
	O126	O	-2.189000000000E-01	1.061700000000E-01	4.902500000000E-01
	O127	O	4.288000000000E-01	-2.705300000000E-01	4.288000000000E-01
	O128	O	4.288000000000E-01	4.288000000000E-01	-2.705300000000E-01
	O129	O	-2.705300000000E-01	4.288000000000E-01	4.288000000000E-01
	O130	O	2.705300000000E-01	-4.288000000000E-01	-4.288000000000E-01
	O131	O	-4.288000000000E-01	-4.288000000000E-01	2.705300000000E-01
	O132	O	-4.288000000000E-01	2.705300000000E-01	-4.288000000000E-01
	O133	O	-3.385100000000E-01	2.730000000000E-01	-3.385100000000E-01
	O134	O	-3.385100000000E-01	-3.385100000000E-01	2.730000000000E-01
	O135	O	2.730000000000E-01	-3.385100000000E-01	-3.385100000000E-01
	O136	O	-2.730000000000E-01	3.385100000000E-01	3.385100000000E-01
	O137	O	3.385100000000E-01	3.385100000000E-01	-2.730000000000E-01
	O138	O	3.385100000000E-01	-2.730000000000E-01	3.385100000000E-01
	O139	O	2.251800000000E-01	-2.251800000000E-01	-5.000000000000E-01
	O140	O	-5.000000000000E-01	2.251800000000E-01	-2.251800000000E-01
	O141	O	-2.251800000000E-01	-5.000000000000E-01	2.251800000000E-01
	O142	O	-2.251800000000E-01	2.251800000000E-01	-5.000000000000E-01
	O143	O	-5.000000000000E-01	-2.251800000000E-01	2.251800000000E-01
	O144	O	2.251800000000E-01	-5.000000000000E-01	-2.251800000000E-01
