data AVL
_chemical_name_common		'AVL'
_cell_length_a		13.23810000
_cell_length_b		13.23810000
_cell_length_c		17.48200000
_cell_angle_alpha		90.000000
_cell_angle_beta		90.000000
_cell_angle_gamma		120.000000
_space group_name_H-M_alt		'P 1'
_space_group_IT_number		1

loop_
	_atom_site_label
	_atom_site_type_symbol
	_atom_site_fract_x
	_atom_site_fract_y
	_atom_site_fract_z
	O1	O	1.155500000000E-01	-1.155500000000E-01	3.959000000000E-01
	O2	O	1.155500000000E-01	2.311000000000E-01	3.959000000000E-01
	O3	O	-2.311000000000E-01	-1.155500000000E-01	3.959000000000E-01
	O4	O	2.311000000000E-01	1.155500000000E-01	-3.959000000000E-01
	O5	O	-1.155500000000E-01	-2.311000000000E-01	-3.959000000000E-01
	O6	O	-1.155500000000E-01	1.155500000000E-01	-3.959000000000E-01
	O7	O	-2.700000000000E-03	3.317000000000E-01	3.549000000000E-01
	O8	O	-3.317000000000E-01	-3.344000000000E-01	3.549000000000E-01
	O9	O	3.344000000000E-01	2.700000000000E-03	3.549000000000E-01
	O10	O	-3.344000000000E-01	-3.317000000000E-01	-3.549000000000E-01
	O11	O	2.700000000000E-03	3.344000000000E-01	-3.549000000000E-01
	O12	O	3.317000000000E-01	-2.700000000000E-03	-3.549000000000E-01
	O13	O	2.700000000000E-03	-3.317000000000E-01	-3.549000000000E-01
	O14	O	3.317000000000E-01	3.344000000000E-01	-3.549000000000E-01
	O15	O	-3.344000000000E-01	-2.700000000000E-03	-3.549000000000E-01
	O16	O	3.344000000000E-01	3.317000000000E-01	3.549000000000E-01
	O17	O	-2.700000000000E-03	-3.344000000000E-01	3.549000000000E-01
	O18	O	-3.317000000000E-01	2.700000000000E-03	3.549000000000E-01
	O19	O	-1.123000000000E-01	1.123000000000E-01	3.967000000000E-01
	O20	O	-1.123000000000E-01	-2.246000000000E-01	3.967000000000E-01
	O21	O	2.246000000000E-01	1.123000000000E-01	3.967000000000E-01
	O22	O	-2.246000000000E-01	-1.123000000000E-01	-3.967000000000E-01
	O23	O	1.123000000000E-01	2.246000000000E-01	-3.967000000000E-01
	O24	O	1.123000000000E-01	-1.123000000000E-01	-3.967000000000E-01
	O25	O	2.767000000000E-01	-2.775557561563E-17	-5.000000000000E-01
	O26	O	1.936796253625E-17	2.767000000000E-01	-5.000000000000E-01
	O27	O	-2.767000000000E-01	-2.767000000000E-01	-5.000000000000E-01
	O28	O	-2.767000000000E-01	2.775557561563E-17	-5.000000000000E-01
	O29	O	-1.936796253625E-17	-2.767000000000E-01	-5.000000000000E-01
	O30	O	2.767000000000E-01	2.767000000000E-01	-5.000000000000E-01
	O31	O	2.374000000000E-01	-2.374000000000E-01	1.183000000000E-01
	O32	O	2.374000000000E-01	4.748000000000E-01	1.183000000000E-01
	O33	O	-4.748000000000E-01	-2.374000000000E-01	1.183000000000E-01
	O34	O	4.748000000000E-01	2.374000000000E-01	-1.183000000000E-01
	O35	O	-2.374000000000E-01	-4.748000000000E-01	-1.183000000000E-01
	O36	O	-2.374000000000E-01	2.374000000000E-01	-1.183000000000E-01
	O37	O	2.580000000000E-02	3.215000000000E-01	7.290000000000E-02
	O38	O	-3.215000000000E-01	-2.957000000000E-01	7.290000000000E-02
	O39	O	2.957000000000E-01	-2.580000000000E-02	7.290000000000E-02
	O40	O	-2.957000000000E-01	-3.215000000000E-01	-7.290000000000E-02
	O41	O	-2.580000000000E-02	2.957000000000E-01	-7.290000000000E-02
	O42	O	3.215000000000E-01	2.580000000000E-02	-7.290000000000E-02
	O43	O	-2.580000000000E-02	-3.215000000000E-01	-7.290000000000E-02
	O44	O	3.215000000000E-01	2.957000000000E-01	-7.290000000000E-02
	O45	O	-2.957000000000E-01	2.580000000000E-02	-7.290000000000E-02
	O46	O	2.957000000000E-01	3.215000000000E-01	7.290000000000E-02
	O47	O	2.580000000000E-02	-2.957000000000E-01	7.290000000000E-02
	O48	O	-3.215000000000E-01	-2.580000000000E-02	7.290000000000E-02
	O49	O	4.589000000000E-01	-4.589000000000E-01	9.800000000000E-02
	O50	O	4.589000000000E-01	-8.220000000000E-02	9.800000000000E-02
	O51	O	8.220000000000E-02	-4.589000000000E-01	9.800000000000E-02
	O52	O	-8.220000000000E-02	4.589000000000E-01	-9.800000000000E-02
	O53	O	-4.589000000000E-01	8.220000000000E-02	-9.800000000000E-02
	O54	O	-4.589000000000E-01	4.589000000000E-01	-9.800000000000E-02
	O55	O	5.980000000000E-02	4.033000000000E-01	2.125000000000E-01
	O56	O	-4.033000000000E-01	-3.435000000000E-01	2.125000000000E-01
	O57	O	3.435000000000E-01	-5.980000000000E-02	2.125000000000E-01
	O58	O	-3.435000000000E-01	-4.033000000000E-01	-2.125000000000E-01
	O59	O	-5.980000000000E-02	3.435000000000E-01	-2.125000000000E-01
	O60	O	4.033000000000E-01	5.980000000000E-02	-2.125000000000E-01
	O61	O	-5.980000000000E-02	-4.033000000000E-01	-2.125000000000E-01
	O62	O	4.033000000000E-01	3.435000000000E-01	-2.125000000000E-01
	O63	O	-3.435000000000E-01	5.980000000000E-02	-2.125000000000E-01
	O64	O	3.435000000000E-01	4.033000000000E-01	2.125000000000E-01
	O65	O	5.980000000000E-02	-3.435000000000E-01	2.125000000000E-01
	O66	O	-4.033000000000E-01	-5.980000000000E-02	2.125000000000E-01
	O67	O	2.173000000000E-01	-2.173000000000E-01	3.163000000000E-01
	O68	O	2.173000000000E-01	4.346000000000E-01	3.163000000000E-01
	O69	O	-4.346000000000E-01	-2.173000000000E-01	3.163000000000E-01
	O70	O	4.346000000000E-01	2.173000000000E-01	-3.163000000000E-01
	O71	O	-2.173000000000E-01	-4.346000000000E-01	-3.163000000000E-01
	O72	O	-2.173000000000E-01	2.173000000000E-01	-3.163000000000E-01
	O73	O	4.448500000000E-01	-4.448500000000E-01	3.241000000000E-01
	O74	O	4.448500000000E-01	-1.103000000000E-01	3.241000000000E-01
	O75	O	1.103000000000E-01	-4.448500000000E-01	3.241000000000E-01
	O76	O	-1.103000000000E-01	4.448500000000E-01	-3.241000000000E-01
	O77	O	-4.448500000000E-01	1.103000000000E-01	-3.241000000000E-01
	O78	O	-4.448500000000E-01	4.448500000000E-01	-3.241000000000E-01
	O79	O	-1.117000000000E-01	1.117000000000E-01	1.700000000000E-02
	O80	O	-1.117000000000E-01	-2.234000000000E-01	1.700000000000E-02
	O81	O	2.234000000000E-01	1.117000000000E-01	1.700000000000E-02
	O82	O	-2.234000000000E-01	-1.117000000000E-01	-1.700000000000E-02
	O83	O	1.117000000000E-01	2.234000000000E-01	-1.700000000000E-02
	O84	O	1.117000000000E-01	-1.117000000000E-01	-1.700000000000E-02
	Si85	Si	-2.000000000000E-04	2.382000000000E-01	4.127000000000E-01
	Si86	Si	-2.382000000000E-01	-2.384000000000E-01	4.127000000000E-01
	Si87	Si	2.384000000000E-01	2.000000000000E-04	4.127000000000E-01
	Si88	Si	-2.384000000000E-01	-2.382000000000E-01	-4.127000000000E-01
	Si89	Si	2.000000000000E-04	2.384000000000E-01	-4.127000000000E-01
	Si90	Si	2.382000000000E-01	-2.000000000000E-04	-4.127000000000E-01
	Si91	Si	2.000000000000E-04	-2.382000000000E-01	-4.127000000000E-01
	Si92	Si	2.382000000000E-01	2.384000000000E-01	-4.127000000000E-01
	Si93	Si	-2.384000000000E-01	-2.000000000000E-04	-4.127000000000E-01
	Si94	Si	2.384000000000E-01	2.382000000000E-01	4.127000000000E-01
	Si95	Si	-2.000000000000E-04	-2.384000000000E-01	4.127000000000E-01
	Si96	Si	-2.382000000000E-01	2.000000000000E-04	4.127000000000E-01
	Si97	Si	1.013000000000E-01	4.354000000000E-01	1.249000000000E-01
	Si98	Si	-4.354000000000E-01	-3.341000000000E-01	1.249000000000E-01
	Si99	Si	3.341000000000E-01	-1.013000000000E-01	1.249000000000E-01
	Si100	Si	-3.341000000000E-01	-4.354000000000E-01	-1.249000000000E-01
	Si101	Si	-1.013000000000E-01	3.341000000000E-01	-1.249000000000E-01
	Si102	Si	4.354000000000E-01	1.013000000000E-01	-1.249000000000E-01
	Si103	Si	-1.013000000000E-01	-4.354000000000E-01	-1.249000000000E-01
	Si104	Si	4.354000000000E-01	3.341000000000E-01	-1.249000000000E-01
	Si105	Si	-3.341000000000E-01	1.013000000000E-01	-1.249000000000E-01
	Si106	Si	3.341000000000E-01	4.354000000000E-01	1.249000000000E-01
	Si107	Si	1.013000000000E-01	-3.341000000000E-01	1.249000000000E-01
	Si108	Si	-4.354000000000E-01	-1.013000000000E-01	1.249000000000E-01
	Si109	Si	9.570000000000E-02	4.309000000000E-01	3.011000000000E-01
	Si110	Si	-4.309000000000E-01	-3.352000000000E-01	3.011000000000E-01
	Si111	Si	3.352000000000E-01	-9.570000000000E-02	3.011000000000E-01
	Si112	Si	-3.352000000000E-01	-4.309000000000E-01	-3.011000000000E-01
	Si113	Si	-9.570000000000E-02	3.352000000000E-01	-3.011000000000E-01
	Si114	Si	4.309000000000E-01	9.570000000000E-02	-3.011000000000E-01
	Si115	Si	-9.570000000000E-02	-4.309000000000E-01	-3.011000000000E-01
	Si116	Si	4.309000000000E-01	3.352000000000E-01	-3.011000000000E-01
	Si117	Si	-3.352000000000E-01	9.570000000000E-02	-3.011000000000E-01
	Si118	Si	3.352000000000E-01	4.309000000000E-01	3.011000000000E-01
	Si119	Si	9.570000000000E-02	-3.352000000000E-01	3.011000000000E-01
	Si120	Si	-4.309000000000E-01	-9.570000000000E-02	3.011000000000E-01
	Si121	Si	2.377000000000E-01	2.775557561563E-17	0.000000000000E+00
	Si122	Si	0.000000000000E+00	2.377000000000E-01	0.000000000000E+00
	Si123	Si	-2.377000000000E-01	-2.377000000000E-01	0.000000000000E+00
	Si124	Si	-2.377000000000E-01	-1.387778780781E-17	0.000000000000E+00
	Si125	Si	0.000000000000E+00	-2.377000000000E-01	0.000000000000E+00
	Si126	Si	2.377000000000E-01	2.377000000000E-01	0.000000000000E+00
