data AWO
_chemical_name_common		'AWO'
_cell_length_a		8.78748294
_cell_length_b		8.78748294
_cell_length_c		19.24100000
_cell_angle_alpha		90.000000
_cell_angle_beta		90.000000
_cell_angle_gamma		62.374793
_space group_name_H-M_alt		'P 1'
_space_group_IT_number		1

loop_
	_atom_site_label
	_atom_site_type_symbol
	_atom_site_fract_x
	_atom_site_fract_y
	_atom_site_fract_z
	O1	O	1.398000000000E-01	-3.602000000000E-01	2.500000000000E-01
	O2	O	3.602000000000E-01	-1.398000000000E-01	-2.500000000000E-01
	O3	O	-1.398000000000E-01	3.602000000000E-01	-2.500000000000E-01
	O4	O	-3.602000000000E-01	1.398000000000E-01	2.500000000000E-01
	O5	O	-1.393000000000E-01	-1.393000000000E-01	3.149000000000E-01
	O6	O	-3.607000000000E-01	-3.607000000000E-01	-1.851000000000E-01
	O7	O	1.393000000000E-01	1.393000000000E-01	-3.149000000000E-01
	O8	O	3.607000000000E-01	3.607000000000E-01	1.851000000000E-01
	O9	O	-1.660000000000E-02	-4.714000000000E-01	3.368000000000E-01
	O10	O	-4.834000000000E-01	-2.860000000000E-02	-1.632000000000E-01
	O11	O	4.714000000000E-01	1.660000000000E-02	-3.368000000000E-01
	O12	O	2.860000000000E-02	4.834000000000E-01	1.632000000000E-01
	O13	O	1.660000000000E-02	4.714000000000E-01	-3.368000000000E-01
	O14	O	4.834000000000E-01	2.860000000000E-02	1.632000000000E-01
	O15	O	-4.714000000000E-01	-1.660000000000E-02	3.368000000000E-01
	O16	O	-2.860000000000E-02	-4.834000000000E-01	-1.632000000000E-01
	O17	O	1.495000000000E-01	-3.103000000000E-01	3.842000000000E-01
	O18	O	3.505000000000E-01	-1.897000000000E-01	-1.158000000000E-01
	O19	O	3.103000000000E-01	-1.495000000000E-01	-3.842000000000E-01
	O20	O	1.897000000000E-01	-3.505000000000E-01	1.158000000000E-01
	O21	O	-1.495000000000E-01	3.103000000000E-01	-3.842000000000E-01
	O22	O	-3.505000000000E-01	1.897000000000E-01	1.158000000000E-01
	O23	O	-3.103000000000E-01	1.495000000000E-01	3.842000000000E-01
	O24	O	-1.897000000000E-01	3.505000000000E-01	-1.158000000000E-01
	O25	O	3.105000000000E-01	-1.279000000000E-01	1.158000000000E-01
	O26	O	1.895000000000E-01	-3.721000000000E-01	-3.842000000000E-01
	O27	O	1.279000000000E-01	-3.105000000000E-01	-1.158000000000E-01
	O28	O	3.721000000000E-01	-1.895000000000E-01	3.842000000000E-01
	O29	O	-3.105000000000E-01	1.279000000000E-01	-1.158000000000E-01
	O30	O	-1.895000000000E-01	3.721000000000E-01	3.842000000000E-01
	O31	O	-1.279000000000E-01	3.105000000000E-01	1.158000000000E-01
	O32	O	-3.721000000000E-01	1.895000000000E-01	-3.842000000000E-01
	O33	O	1.957000000000E-01	-1.957000000000E-01	0.000000000000E+00
	O34	O	3.043000000000E-01	-3.043000000000E-01	-5.000000000000E-01
	O35	O	-1.957000000000E-01	1.957000000000E-01	0.000000000000E+00
	O36	O	-3.043000000000E-01	3.043000000000E-01	-5.000000000000E-01
	O37	O	-2.110000000000E-02	-2.110000000000E-02	9.930000000000E-02
	O38	O	-4.789000000000E-01	-4.789000000000E-01	-4.007000000000E-01
	O39	O	2.110000000000E-02	2.110000000000E-02	-9.930000000000E-02
	O40	O	4.789000000000E-01	4.789000000000E-01	4.007000000000E-01
	O41	O	3.711000000000E-01	-1.289000000000E-01	2.500000000000E-01
	O42	O	1.289000000000E-01	-3.711000000000E-01	-2.500000000000E-01
	O43	O	-3.711000000000E-01	1.289000000000E-01	-2.500000000000E-01
	O44	O	-1.289000000000E-01	3.711000000000E-01	2.500000000000E-01
	O45	O	-3.454000000000E-01	-3.454000000000E-01	3.108000000000E-01
	O46	O	-1.546000000000E-01	-1.546000000000E-01	-1.892000000000E-01
	O47	O	3.454000000000E-01	3.454000000000E-01	-3.108000000000E-01
	O48	O	1.546000000000E-01	1.546000000000E-01	1.892000000000E-01
	Si49	Si	3.270000000000E-02	-3.193000000000E-01	3.215000000000E-01
	Si50	Si	4.673000000000E-01	-1.807000000000E-01	-1.785000000000E-01
	Si51	Si	3.193000000000E-01	-3.270000000000E-02	-3.215000000000E-01
	Si52	Si	1.807000000000E-01	-4.673000000000E-01	1.785000000000E-01
	Si53	Si	-3.270000000000E-02	3.193000000000E-01	-3.215000000000E-01
	Si54	Si	-4.673000000000E-01	1.807000000000E-01	1.785000000000E-01
	Si55	Si	-3.193000000000E-01	3.270000000000E-02	3.215000000000E-01
	Si56	Si	-1.807000000000E-01	4.673000000000E-01	-1.785000000000E-01
	Si57	Si	1.679000000000E-01	-1.733000000000E-01	8.270000000000E-02
	Si58	Si	3.321000000000E-01	-3.267000000000E-01	-4.173000000000E-01
	Si59	Si	1.733000000000E-01	-1.679000000000E-01	-8.270000000000E-02
	Si60	Si	3.267000000000E-01	-3.321000000000E-01	4.173000000000E-01
	Si61	Si	-1.679000000000E-01	1.733000000000E-01	-8.270000000000E-02
	Si62	Si	-3.321000000000E-01	3.267000000000E-01	4.173000000000E-01
	Si63	Si	-1.733000000000E-01	1.679000000000E-01	8.270000000000E-02
	Si64	Si	-3.267000000000E-01	3.321000000000E-01	-4.173000000000E-01
	Si65	Si	4.806000000000E-01	-1.690000000000E-01	3.208000000000E-01
	Si66	Si	1.940000000000E-02	-3.310000000000E-01	-1.792000000000E-01
	Si67	Si	1.690000000000E-01	-4.806000000000E-01	-3.208000000000E-01
	Si68	Si	3.310000000000E-01	-1.940000000000E-02	1.792000000000E-01
	Si69	Si	-4.806000000000E-01	1.690000000000E-01	-3.208000000000E-01
	Si70	Si	-1.940000000000E-02	3.310000000000E-01	1.792000000000E-01
	Si71	Si	-1.690000000000E-01	4.806000000000E-01	3.208000000000E-01
	Si72	Si	-3.310000000000E-01	1.940000000000E-02	-1.792000000000E-01
