data AWW
_chemical_name_common		'AWW'
_cell_length_a		13.63400000
_cell_length_b		13.63400000
_cell_length_c		7.62700000
_cell_angle_alpha		90.000000
_cell_angle_beta		90.000000
_cell_angle_gamma		90.000000
_space group_name_H-M_alt		'P 1'
_space_group_IT_number		1

loop_
	_atom_site_label
	_atom_site_type_symbol
	_atom_site_fract_x
	_atom_site_fract_y
	_atom_site_fract_z
	O1	O	-2.496000000000E-01	0.000000000000E+00	-1.301000000000E-01
	O2	O	2.496000000000E-01	0.000000000000E+00	-1.301000000000E-01
	O3	O	2.504000000000E-01	-5.000000000000E-01	1.301000000000E-01
	O4	O	-2.504000000000E-01	-5.000000000000E-01	1.301000000000E-01
	O5	O	5.000000000000E-01	-2.504000000000E-01	1.301000000000E-01
	O6	O	5.000000000000E-01	2.504000000000E-01	1.301000000000E-01
	O7	O	0.000000000000E+00	2.496000000000E-01	-1.301000000000E-01
	O8	O	0.000000000000E+00	-2.496000000000E-01	-1.301000000000E-01
	O9	O	-3.170000000000E-01	1.389000000000E-01	-3.370000000000E-01
	O10	O	3.170000000000E-01	-1.389000000000E-01	-3.370000000000E-01
	O11	O	1.830000000000E-01	3.611000000000E-01	3.370000000000E-01
	O12	O	-1.830000000000E-01	-3.611000000000E-01	3.370000000000E-01
	O13	O	3.611000000000E-01	-1.830000000000E-01	3.370000000000E-01
	O14	O	-3.611000000000E-01	1.830000000000E-01	3.370000000000E-01
	O15	O	1.389000000000E-01	3.170000000000E-01	-3.370000000000E-01
	O16	O	-1.389000000000E-01	-3.170000000000E-01	-3.370000000000E-01
	O17	O	-1.830000000000E-01	3.611000000000E-01	3.370000000000E-01
	O18	O	1.830000000000E-01	-3.611000000000E-01	3.370000000000E-01
	O19	O	3.170000000000E-01	1.389000000000E-01	-3.370000000000E-01
	O20	O	-3.170000000000E-01	-1.389000000000E-01	-3.370000000000E-01
	O21	O	1.389000000000E-01	-3.170000000000E-01	-3.370000000000E-01
	O22	O	-1.389000000000E-01	3.170000000000E-01	-3.370000000000E-01
	O23	O	3.611000000000E-01	1.830000000000E-01	3.370000000000E-01
	O24	O	-3.611000000000E-01	-1.830000000000E-01	3.370000000000E-01
	O25	O	-3.578000000000E-01	1.422000000000E-01	0.000000000000E+00
	O26	O	3.578000000000E-01	-1.422000000000E-01	0.000000000000E+00
	O27	O	1.422000000000E-01	3.578000000000E-01	0.000000000000E+00
	O28	O	-1.422000000000E-01	-3.578000000000E-01	0.000000000000E+00
	O29	O	-1.422000000000E-01	3.578000000000E-01	0.000000000000E+00
	O30	O	1.422000000000E-01	-3.578000000000E-01	0.000000000000E+00
	O31	O	3.578000000000E-01	1.422000000000E-01	0.000000000000E+00
	O32	O	-3.578000000000E-01	-1.422000000000E-01	0.000000000000E+00
	O33	O	-1.784000000000E-01	1.784000000000E-01	-1.079000000000E-01
	O34	O	1.784000000000E-01	-1.784000000000E-01	-1.079000000000E-01
	O35	O	3.216000000000E-01	3.216000000000E-01	1.079000000000E-01
	O36	O	-3.216000000000E-01	-3.216000000000E-01	1.079000000000E-01
	O37	O	3.216000000000E-01	-3.216000000000E-01	1.079000000000E-01
	O38	O	-3.216000000000E-01	3.216000000000E-01	1.079000000000E-01
	O39	O	1.784000000000E-01	1.784000000000E-01	-1.079000000000E-01
	O40	O	-1.784000000000E-01	-1.784000000000E-01	-1.079000000000E-01
	O41	O	3.710000000000E-01	0.000000000000E+00	4.442000000000E-01
	O42	O	-3.710000000000E-01	0.000000000000E+00	4.442000000000E-01
	O43	O	-1.290000000000E-01	-5.000000000000E-01	-4.442000000000E-01
	O44	O	1.290000000000E-01	-5.000000000000E-01	-4.442000000000E-01
	O45	O	5.000000000000E-01	1.290000000000E-01	-4.442000000000E-01
	O46	O	5.000000000000E-01	-1.290000000000E-01	-4.442000000000E-01
	O47	O	0.000000000000E+00	-3.710000000000E-01	4.442000000000E-01
	O48	O	0.000000000000E+00	3.710000000000E-01	4.442000000000E-01
	Si49	Si	-2.758000000000E-01	1.148000000000E-01	-1.440000000000E-01
	Si50	Si	2.758000000000E-01	-1.148000000000E-01	-1.440000000000E-01
	Si51	Si	2.242000000000E-01	3.852000000000E-01	1.440000000000E-01
	Si52	Si	-2.242000000000E-01	-3.852000000000E-01	1.440000000000E-01
	Si53	Si	3.852000000000E-01	-2.242000000000E-01	1.440000000000E-01
	Si54	Si	-3.852000000000E-01	2.242000000000E-01	1.440000000000E-01
	Si55	Si	1.148000000000E-01	2.758000000000E-01	-1.440000000000E-01
	Si56	Si	-1.148000000000E-01	-2.758000000000E-01	-1.440000000000E-01
	Si57	Si	-2.242000000000E-01	3.852000000000E-01	1.440000000000E-01
	Si58	Si	2.242000000000E-01	-3.852000000000E-01	1.440000000000E-01
	Si59	Si	2.758000000000E-01	1.148000000000E-01	-1.440000000000E-01
	Si60	Si	-2.758000000000E-01	-1.148000000000E-01	-1.440000000000E-01
	Si61	Si	1.148000000000E-01	-2.758000000000E-01	-1.440000000000E-01
	Si62	Si	-1.148000000000E-01	2.758000000000E-01	-1.440000000000E-01
	Si63	Si	3.852000000000E-01	2.242000000000E-01	1.440000000000E-01
	Si64	Si	-3.852000000000E-01	-2.242000000000E-01	1.440000000000E-01
	Si65	Si	3.873000000000E-01	1.127000000000E-01	-5.000000000000E-01
	Si66	Si	-3.873000000000E-01	-1.127000000000E-01	-5.000000000000E-01
	Si67	Si	-1.127000000000E-01	3.873000000000E-01	-5.000000000000E-01
	Si68	Si	1.127000000000E-01	-3.873000000000E-01	-5.000000000000E-01
	Si69	Si	1.127000000000E-01	3.873000000000E-01	-5.000000000000E-01
	Si70	Si	-1.127000000000E-01	-3.873000000000E-01	-5.000000000000E-01
	Si71	Si	-3.873000000000E-01	1.127000000000E-01	-5.000000000000E-01
	Si72	Si	3.873000000000E-01	-1.127000000000E-01	-5.000000000000E-01
