data BEC
_chemical_name_common		'BEC'
_cell_length_a		12.77000000
_cell_length_b		12.77000000
_cell_length_c		12.97700000
_cell_angle_alpha		90.000000
_cell_angle_beta		90.000000
_cell_angle_gamma		90.000000
_space group_name_H-M_alt		'P 1'
_space_group_IT_number		1

loop_
	_atom_site_label
	_atom_site_type_symbol
	_atom_site_fract_x
	_atom_site_fract_y
	_atom_site_fract_z
	O1	O	0.000000000000E+00	-3.801000000000E-01	3.564000000000E-01
	O2	O	0.000000000000E+00	3.801000000000E-01	3.564000000000E-01
	O3	O	0.000000000000E+00	3.801000000000E-01	-3.564000000000E-01
	O4	O	0.000000000000E+00	-3.801000000000E-01	-3.564000000000E-01
	O5	O	3.801000000000E-01	0.000000000000E+00	1.436000000000E-01
	O6	O	-3.801000000000E-01	0.000000000000E+00	1.436000000000E-01
	O7	O	-3.801000000000E-01	0.000000000000E+00	-1.436000000000E-01
	O8	O	3.801000000000E-01	0.000000000000E+00	-1.436000000000E-01
	O9	O	-1.407000000000E-01	-3.433000000000E-01	-5.000000000000E-01
	O10	O	1.407000000000E-01	3.433000000000E-01	-5.000000000000E-01
	O11	O	-1.407000000000E-01	3.433000000000E-01	-5.000000000000E-01
	O12	O	1.407000000000E-01	-3.433000000000E-01	-5.000000000000E-01
	O13	O	3.433000000000E-01	1.407000000000E-01	0.000000000000E+00
	O14	O	-3.433000000000E-01	-1.407000000000E-01	0.000000000000E+00
	O15	O	-3.433000000000E-01	1.407000000000E-01	0.000000000000E+00
	O16	O	3.433000000000E-01	-1.407000000000E-01	0.000000000000E+00
	O17	O	-1.661000000000E-01	-5.000000000000E-01	3.710000000000E-01
	O18	O	1.661000000000E-01	-5.000000000000E-01	3.710000000000E-01
	O19	O	-1.661000000000E-01	-5.000000000000E-01	-3.710000000000E-01
	O20	O	1.661000000000E-01	-5.000000000000E-01	-3.710000000000E-01
	O21	O	-5.000000000000E-01	1.661000000000E-01	1.290000000000E-01
	O22	O	-5.000000000000E-01	-1.661000000000E-01	1.290000000000E-01
	O23	O	-5.000000000000E-01	1.661000000000E-01	-1.290000000000E-01
	O24	O	-5.000000000000E-01	-1.661000000000E-01	-1.290000000000E-01
	O25	O	-1.837000000000E-01	-3.058000000000E-01	-3.046000000000E-01
	O26	O	1.837000000000E-01	3.058000000000E-01	-3.046000000000E-01
	O27	O	-1.837000000000E-01	3.058000000000E-01	3.046000000000E-01
	O28	O	1.837000000000E-01	-3.058000000000E-01	3.046000000000E-01
	O29	O	3.058000000000E-01	1.837000000000E-01	-1.954000000000E-01
	O30	O	-3.058000000000E-01	-1.837000000000E-01	-1.954000000000E-01
	O31	O	-3.058000000000E-01	1.837000000000E-01	1.954000000000E-01
	O32	O	3.058000000000E-01	-1.837000000000E-01	1.954000000000E-01
	O33	O	1.837000000000E-01	3.058000000000E-01	3.046000000000E-01
	O34	O	-1.837000000000E-01	-3.058000000000E-01	3.046000000000E-01
	O35	O	1.837000000000E-01	-3.058000000000E-01	-3.046000000000E-01
	O36	O	-1.837000000000E-01	3.058000000000E-01	-3.046000000000E-01
	O37	O	-3.058000000000E-01	-1.837000000000E-01	1.954000000000E-01
	O38	O	3.058000000000E-01	1.837000000000E-01	1.954000000000E-01
	O39	O	3.058000000000E-01	-1.837000000000E-01	-1.954000000000E-01
	O40	O	-3.058000000000E-01	1.837000000000E-01	-1.954000000000E-01
	O41	O	0.000000000000E+00	-1.196000000000E-01	0.000000000000E+00
	O42	O	0.000000000000E+00	1.196000000000E-01	0.000000000000E+00
	O43	O	1.196000000000E-01	0.000000000000E+00	-5.000000000000E-01
	O44	O	-1.196000000000E-01	0.000000000000E+00	-5.000000000000E-01
	O45	O	0.000000000000E+00	0.000000000000E+00	1.645000000000E-01
	O46	O	0.000000000000E+00	0.000000000000E+00	-1.645000000000E-01
	O47	O	0.000000000000E+00	0.000000000000E+00	3.355000000000E-01
	O48	O	0.000000000000E+00	0.000000000000E+00	-3.355000000000E-01
	O49	O	-1.027000000000E-01	1.797000000000E-01	1.644000000000E-01
	O50	O	1.027000000000E-01	-1.797000000000E-01	1.644000000000E-01
	O51	O	-1.027000000000E-01	-1.797000000000E-01	-1.644000000000E-01
	O52	O	1.027000000000E-01	1.797000000000E-01	-1.644000000000E-01
	O53	O	-1.797000000000E-01	1.027000000000E-01	3.356000000000E-01
	O54	O	1.797000000000E-01	-1.027000000000E-01	3.356000000000E-01
	O55	O	1.797000000000E-01	1.027000000000E-01	-3.356000000000E-01
	O56	O	-1.797000000000E-01	-1.027000000000E-01	-3.356000000000E-01
	O57	O	1.027000000000E-01	-1.797000000000E-01	-1.644000000000E-01
	O58	O	-1.027000000000E-01	1.797000000000E-01	-1.644000000000E-01
	O59	O	1.027000000000E-01	1.797000000000E-01	1.644000000000E-01
	O60	O	-1.027000000000E-01	-1.797000000000E-01	1.644000000000E-01
	O61	O	1.797000000000E-01	-1.027000000000E-01	-3.356000000000E-01
	O62	O	-1.797000000000E-01	1.027000000000E-01	-3.356000000000E-01
	O63	O	-1.797000000000E-01	-1.027000000000E-01	3.356000000000E-01
	O64	O	1.797000000000E-01	1.027000000000E-01	3.356000000000E-01
	Si65	Si	-1.230000000000E-01	-3.820000000000E-01	-3.832000000000E-01
	Si66	Si	1.230000000000E-01	3.820000000000E-01	-3.832000000000E-01
	Si67	Si	-1.230000000000E-01	3.820000000000E-01	3.832000000000E-01
	Si68	Si	1.230000000000E-01	-3.820000000000E-01	3.832000000000E-01
	Si69	Si	3.820000000000E-01	1.230000000000E-01	-1.168000000000E-01
	Si70	Si	-3.820000000000E-01	-1.230000000000E-01	-1.168000000000E-01
	Si71	Si	-3.820000000000E-01	1.230000000000E-01	1.168000000000E-01
	Si72	Si	3.820000000000E-01	-1.230000000000E-01	1.168000000000E-01
	Si73	Si	1.230000000000E-01	3.820000000000E-01	3.832000000000E-01
	Si74	Si	-1.230000000000E-01	-3.820000000000E-01	3.832000000000E-01
	Si75	Si	1.230000000000E-01	-3.820000000000E-01	-3.832000000000E-01
	Si76	Si	-1.230000000000E-01	3.820000000000E-01	-3.832000000000E-01
	Si77	Si	-3.820000000000E-01	-1.230000000000E-01	1.168000000000E-01
	Si78	Si	3.820000000000E-01	1.230000000000E-01	1.168000000000E-01
	Si79	Si	3.820000000000E-01	-1.230000000000E-01	-1.168000000000E-01
	Si80	Si	-3.820000000000E-01	1.230000000000E-01	-1.168000000000E-01
	Si81	Si	-1.930000000000E-01	-1.930000000000E-01	2.500000000000E-01
	Si82	Si	1.930000000000E-01	1.930000000000E-01	2.500000000000E-01
	Si83	Si	-1.930000000000E-01	1.930000000000E-01	-2.500000000000E-01
	Si84	Si	1.930000000000E-01	-1.930000000000E-01	-2.500000000000E-01
	Si85	Si	1.930000000000E-01	1.930000000000E-01	-2.500000000000E-01
	Si86	Si	-1.930000000000E-01	-1.930000000000E-01	-2.500000000000E-01
	Si87	Si	1.930000000000E-01	-1.930000000000E-01	2.500000000000E-01
	Si88	Si	-1.930000000000E-01	1.930000000000E-01	2.500000000000E-01
	Si89	Si	0.000000000000E+00	1.192000000000E-01	1.238000000000E-01
	Si90	Si	0.000000000000E+00	-1.192000000000E-01	1.238000000000E-01
	Si91	Si	0.000000000000E+00	-1.192000000000E-01	-1.238000000000E-01
	Si92	Si	0.000000000000E+00	1.192000000000E-01	-1.238000000000E-01
	Si93	Si	-1.192000000000E-01	0.000000000000E+00	3.762000000000E-01
	Si94	Si	1.192000000000E-01	0.000000000000E+00	3.762000000000E-01
	Si95	Si	1.192000000000E-01	0.000000000000E+00	-3.762000000000E-01
	Si96	Si	-1.192000000000E-01	0.000000000000E+00	-3.762000000000E-01
