data BOF
_chemical_name_common		'BOF'
_cell_length_a		7.50300000
_cell_length_b		12.77300000
_cell_length_c		13.70600000
_cell_angle_alpha		90.000000
_cell_angle_beta		90.000000
_cell_angle_gamma		90.000000
_space group_name_H-M_alt		'P 1'
_space_group_IT_number		1

loop_
	_atom_site_label
	_atom_site_type_symbol
	_atom_site_fract_x
	_atom_site_fract_y
	_atom_site_fract_z
	O1	O	-4.753000000000E-01	-3.782000000000E-01	-4.464000000000E-01
	O2	O	-2.470000000000E-02	3.782000000000E-01	5.360000000000E-02
	O3	O	2.470000000000E-02	-1.218000000000E-01	-5.360000000000E-02
	O4	O	4.753000000000E-01	1.218000000000E-01	4.464000000000E-01
	O5	O	4.753000000000E-01	3.782000000000E-01	4.464000000000E-01
	O6	O	2.470000000000E-02	-3.782000000000E-01	-5.360000000000E-02
	O7	O	-2.470000000000E-02	1.218000000000E-01	5.360000000000E-02
	O8	O	-4.753000000000E-01	-1.218000000000E-01	-4.464000000000E-01
	O9	O	7.100000000000E-02	-4.413000000000E-01	-2.344000000000E-01
	O10	O	4.290000000000E-01	4.413000000000E-01	2.656000000000E-01
	O11	O	-4.290000000000E-01	-5.870000000000E-02	-2.656000000000E-01
	O12	O	-7.100000000000E-02	5.870000000000E-02	2.344000000000E-01
	O13	O	-7.100000000000E-02	4.413000000000E-01	2.344000000000E-01
	O14	O	-4.290000000000E-01	-4.413000000000E-01	-2.656000000000E-01
	O15	O	4.290000000000E-01	5.870000000000E-02	2.656000000000E-01
	O16	O	7.100000000000E-02	-5.870000000000E-02	-2.344000000000E-01
	O17	O	-1.543000000000E-01	-3.803000000000E-01	-3.704000000000E-01
	O18	O	-3.457000000000E-01	3.803000000000E-01	1.296000000000E-01
	O19	O	3.457000000000E-01	-1.197000000000E-01	-1.296000000000E-01
	O20	O	1.543000000000E-01	1.197000000000E-01	3.704000000000E-01
	O21	O	1.543000000000E-01	3.803000000000E-01	3.704000000000E-01
	O22	O	3.457000000000E-01	-3.803000000000E-01	-1.296000000000E-01
	O23	O	-3.457000000000E-01	1.197000000000E-01	1.296000000000E-01
	O24	O	-1.543000000000E-01	-1.197000000000E-01	-3.704000000000E-01
	O25	O	1.836000000000E-01	-4.090000000000E-01	-4.136000000000E-01
	O26	O	3.164000000000E-01	4.090000000000E-01	8.640000000000E-02
	O27	O	-3.164000000000E-01	-9.100000000000E-02	-8.640000000000E-02
	O28	O	-1.836000000000E-01	9.100000000000E-02	4.136000000000E-01
	O29	O	-1.836000000000E-01	4.090000000000E-01	4.136000000000E-01
	O30	O	-3.164000000000E-01	-4.090000000000E-01	-8.640000000000E-02
	O31	O	3.164000000000E-01	9.100000000000E-02	8.640000000000E-02
	O32	O	1.836000000000E-01	-9.100000000000E-02	-4.136000000000E-01
	O33	O	3.160000000000E-01	-4.424000000000E-01	4.116000000000E-01
	O34	O	1.840000000000E-01	4.424000000000E-01	-8.840000000000E-02
	O35	O	-1.840000000000E-01	-5.760000000000E-02	8.840000000000E-02
	O36	O	-3.160000000000E-01	5.760000000000E-02	-4.116000000000E-01
	O37	O	-3.160000000000E-01	4.424000000000E-01	-4.116000000000E-01
	O38	O	-1.840000000000E-01	-4.424000000000E-01	8.840000000000E-02
	O39	O	1.840000000000E-01	5.760000000000E-02	-8.840000000000E-02
	O40	O	3.160000000000E-01	-5.760000000000E-02	4.116000000000E-01
	O41	O	8.800000000000E-02	-2.500000000000E-01	-3.038000000000E-01
	O42	O	4.120000000000E-01	2.500000000000E-01	1.962000000000E-01
	O43	O	-4.120000000000E-01	-2.500000000000E-01	-1.962000000000E-01
	O44	O	-8.800000000000E-02	2.500000000000E-01	3.038000000000E-01
	O45	O	2.875000000000E-01	-2.500000000000E-01	4.786000000000E-01
	O46	O	2.125000000000E-01	2.500000000000E-01	-2.140000000000E-02
	O47	O	-2.125000000000E-01	-2.500000000000E-01	2.140000000000E-02
	O48	O	-2.875000000000E-01	2.500000000000E-01	-4.786000000000E-01
	Si49	Si	4.680000000000E-02	-3.704000000000E-01	-3.306000000000E-01
	Si50	Si	4.532000000000E-01	3.704000000000E-01	1.694000000000E-01
	Si51	Si	-4.532000000000E-01	-1.296000000000E-01	-1.694000000000E-01
	Si52	Si	-4.680000000000E-02	1.296000000000E-01	3.306000000000E-01
	Si53	Si	-4.680000000000E-02	3.704000000000E-01	3.306000000000E-01
	Si54	Si	-4.532000000000E-01	-3.704000000000E-01	-1.694000000000E-01
	Si55	Si	4.532000000000E-01	1.296000000000E-01	1.694000000000E-01
	Si56	Si	4.680000000000E-02	-1.296000000000E-01	-3.306000000000E-01
	Si57	Si	-3.436000000000E-01	-4.395000000000E-01	-3.734000000000E-01
	Si58	Si	-1.564000000000E-01	4.395000000000E-01	1.266000000000E-01
	Si59	Si	1.564000000000E-01	-6.050000000000E-02	-1.266000000000E-01
	Si60	Si	3.436000000000E-01	6.050000000000E-02	3.734000000000E-01
	Si61	Si	3.436000000000E-01	4.395000000000E-01	3.734000000000E-01
	Si62	Si	1.564000000000E-01	-4.395000000000E-01	-1.266000000000E-01
	Si63	Si	-1.564000000000E-01	6.050000000000E-02	1.266000000000E-01
	Si64	Si	-3.436000000000E-01	-6.050000000000E-02	-3.734000000000E-01
	Si65	Si	3.279000000000E-01	-3.699000000000E-01	-4.925000000000E-01
	Si66	Si	1.721000000000E-01	3.699000000000E-01	7.500000000000E-03
	Si67	Si	-1.721000000000E-01	-1.301000000000E-01	-7.500000000000E-03
	Si68	Si	-3.279000000000E-01	1.301000000000E-01	4.925000000000E-01
	Si69	Si	-3.279000000000E-01	3.699000000000E-01	4.925000000000E-01
	Si70	Si	-1.721000000000E-01	-3.699000000000E-01	-7.500000000000E-03
	Si71	Si	1.721000000000E-01	1.301000000000E-01	7.500000000000E-03
	Si72	Si	3.279000000000E-01	-1.301000000000E-01	-4.925000000000E-01
