data BOG
_chemical_name_common		'BOG'
_cell_length_a		16.71137455
_cell_length_b		16.71137455
_cell_length_c		16.71137455
_cell_angle_alpha		106.430036
_cell_angle_beta		90.258883
_cell_angle_gamma		135.449904
_space group_name_H-M_alt		'P 1'
_space_group_IT_number		1

loop_
	_atom_site_label
	_atom_site_type_symbol
	_atom_site_fract_x
	_atom_site_fract_y
	_atom_site_fract_z
	O1	O	-2.921000000000E-01	-2.368000000000E-01	3.451000000000E-01
	O2	O	-8.190000000000E-02	3.628000000000E-01	1.549000000000E-01
	O3	O	2.921000000000E-01	-3.628000000000E-01	5.530000000000E-02
	O4	O	8.190000000000E-02	2.368000000000E-01	4.447000000000E-01
	O5	O	2.921000000000E-01	2.368000000000E-01	-3.451000000000E-01
	O6	O	8.190000000000E-02	-3.628000000000E-01	-1.549000000000E-01
	O7	O	-2.921000000000E-01	3.628000000000E-01	-5.530000000000E-02
	O8	O	-8.190000000000E-02	-2.368000000000E-01	-4.447000000000E-01
	O9	O	-1.059000000000E-01	-1.612000000000E-01	2.971000000000E-01
	O10	O	4.170000000000E-02	-4.030000000000E-01	2.029000000000E-01
	O11	O	1.059000000000E-01	4.030000000000E-01	-5.530000000000E-02
	O12	O	-4.170000000000E-02	1.612000000000E-01	-4.447000000000E-01
	O13	O	1.059000000000E-01	1.612000000000E-01	-2.971000000000E-01
	O14	O	-4.170000000000E-02	4.030000000000E-01	-2.029000000000E-01
	O15	O	-1.059000000000E-01	-4.030000000000E-01	5.530000000000E-02
	O16	O	4.170000000000E-02	-1.612000000000E-01	4.447000000000E-01
	O17	O	-1.178000000000E-01	-1.645000000000E-01	4.533000000000E-01
	O18	O	-1.178000000000E-01	4.289000000000E-01	4.670000000000E-02
	O19	O	1.178000000000E-01	-4.289000000000E-01	-4.670000000000E-02
	O20	O	1.178000000000E-01	1.645000000000E-01	-4.533000000000E-01
	O21	O	-8.290000000000E-02	1.066782342984E-17	4.171000000000E-01
	O22	O	8.290000000000E-02	-5.000000000000E-01	8.290000000000E-02
	O23	O	8.290000000000E-02	-1.066782342984E-17	-4.171000000000E-01
	O24	O	-8.290000000000E-02	-5.000000000000E-01	-8.290000000000E-02
	O25	O	5.930000000000E-02	1.900000000000E-02	2.479000000000E-01
	O26	O	2.711000000000E-01	-1.886000000000E-01	2.521000000000E-01
	O27	O	-5.930000000000E-02	1.886000000000E-01	-4.030000000000E-02
	O28	O	-2.711000000000E-01	-1.900000000000E-02	-4.597000000000E-01
	O29	O	-5.930000000000E-02	-1.900000000000E-02	-2.479000000000E-01
	O30	O	-2.711000000000E-01	1.886000000000E-01	-2.521000000000E-01
	O31	O	5.930000000000E-02	-1.886000000000E-01	4.030000000000E-02
	O32	O	2.711000000000E-01	1.900000000000E-02	4.597000000000E-01
	O33	O	-3.290000000000E-02	-2.025000000000E-01	1.696000000000E-01
	O34	O	1.279000000000E-01	-2.025000000000E-01	3.304000000000E-01
	O35	O	3.290000000000E-02	2.025000000000E-01	-1.696000000000E-01
	O36	O	-1.279000000000E-01	2.025000000000E-01	-3.304000000000E-01
	O37	O	1.107000000000E-01	-5.760000000000E-02	3.317000000000E-01
	O38	O	1.107000000000E-01	-2.210000000000E-01	1.683000000000E-01
	O39	O	-1.107000000000E-01	2.210000000000E-01	-1.683000000000E-01
	O40	O	-1.107000000000E-01	5.760000000000E-02	-3.317000000000E-01
	O41	O	4.793000000000E-01	-3.822000000000E-01	2.795000000000E-01
	O42	O	-1.617000000000E-01	1.998000000000E-01	2.205000000000E-01
	O43	O	-4.793000000000E-01	-1.998000000000E-01	1.385000000000E-01
	O44	O	1.617000000000E-01	3.822000000000E-01	3.615000000000E-01
	O45	O	-4.793000000000E-01	3.822000000000E-01	-2.795000000000E-01
	O46	O	1.617000000000E-01	-1.998000000000E-01	-2.205000000000E-01
	O47	O	4.793000000000E-01	1.998000000000E-01	-1.385000000000E-01
	O48	O	-1.617000000000E-01	-3.822000000000E-01	-3.615000000000E-01
	O49	O	3.629000000000E-01	-4.238000000000E-01	1.391000000000E-01
	O50	O	-6.290000000000E-02	2.238000000000E-01	3.609000000000E-01
	O51	O	-3.629000000000E-01	-2.238000000000E-01	2.133000000000E-01
	O52	O	6.290000000000E-02	4.238000000000E-01	2.867000000000E-01
	O53	O	-3.629000000000E-01	4.238000000000E-01	-1.391000000000E-01
	O54	O	6.290000000000E-02	-2.238000000000E-01	-3.609000000000E-01
	O55	O	3.629000000000E-01	2.238000000000E-01	-2.133000000000E-01
	O56	O	-6.290000000000E-02	-4.238000000000E-01	-2.867000000000E-01
	O57	O	3.019000000000E-01	3.894000000000E-01	1.583000000000E-01
	O58	O	-2.689000000000E-01	1.436000000000E-01	3.417000000000E-01
	O59	O	-3.019000000000E-01	-1.436000000000E-01	8.750000000000E-02
	O60	O	2.689000000000E-01	-3.894000000000E-01	4.125000000000E-01
	O61	O	-3.019000000000E-01	-3.894000000000E-01	-1.583000000000E-01
	O62	O	2.689000000000E-01	-1.436000000000E-01	-3.417000000000E-01
	O63	O	3.019000000000E-01	1.436000000000E-01	-8.750000000000E-02
	O64	O	-2.689000000000E-01	3.894000000000E-01	-4.125000000000E-01
	O65	O	2.576000000000E-01	5.000000000000E-01	2.576000000000E-01
	O66	O	-2.576000000000E-01	1.066782342984E-17	2.424000000000E-01
	O67	O	-2.576000000000E-01	-5.000000000000E-01	-2.576000000000E-01
	O68	O	2.576000000000E-01	-1.032777019963E-16	-2.424000000000E-01
	O69	O	1.457000000000E-01	1.748000000000E-01	1.731000000000E-01
	O70	O	-4.983000000000E-01	-2.740000000000E-02	3.269000000000E-01
	O71	O	-1.457000000000E-01	2.740000000000E-02	2.910000000000E-02
	O72	O	4.983000000000E-01	-1.748000000000E-01	4.709000000000E-01
	O73	O	-1.457000000000E-01	-1.748000000000E-01	-1.731000000000E-01
	O74	O	4.983000000000E-01	2.740000000000E-02	-3.269000000000E-01
	O75	O	1.457000000000E-01	-2.740000000000E-02	-2.910000000000E-02
	O76	O	-4.983000000000E-01	1.748000000000E-01	-4.709000000000E-01
	O77	O	8.440000000000E-02	2.026000000000E-01	4.680000000000E-02
	O78	O	-3.442000000000E-01	3.760000000000E-02	4.532000000000E-01
	O79	O	-8.440000000000E-02	-3.760000000000E-02	1.182000000000E-01
	O80	O	3.442000000000E-01	-2.026000000000E-01	3.818000000000E-01
	O81	O	-8.440000000000E-02	-2.026000000000E-01	-4.680000000000E-02
	O82	O	3.442000000000E-01	-3.760000000000E-02	-4.532000000000E-01
	O83	O	8.440000000000E-02	3.760000000000E-02	-1.182000000000E-01
	O84	O	-3.442000000000E-01	2.026000000000E-01	-3.818000000000E-01
	O85	O	2.350000000000E-01	1.935000000000E-01	4.150000000000E-02
	O86	O	-3.480000000000E-01	1.935000000000E-01	4.585000000000E-01
	O87	O	-2.350000000000E-01	-1.935000000000E-01	-4.150000000000E-02
	O88	O	3.480000000000E-01	-1.935000000000E-01	-4.585000000000E-01
	O89	O	-3.687000000000E-01	-1.409000000000E-01	3.694000000000E-01
	O90	O	-1.030000000000E-02	2.619000000000E-01	1.306000000000E-01
	O91	O	3.687000000000E-01	-2.619000000000E-01	2.278000000000E-01
	O92	O	1.030000000000E-02	1.409000000000E-01	2.722000000000E-01
	O93	O	3.687000000000E-01	1.409000000000E-01	-3.694000000000E-01
	O94	O	1.030000000000E-02	-2.619000000000E-01	-1.306000000000E-01
	O95	O	-3.687000000000E-01	2.619000000000E-01	-2.278000000000E-01
	O96	O	-1.030000000000E-02	-1.409000000000E-01	-2.722000000000E-01
	Si97	Si	-1.496000000000E-01	-1.408000000000E-01	3.782000000000E-01
	Si98	Si	-1.900000000000E-02	4.722000000000E-01	1.218000000000E-01
	Si99	Si	1.496000000000E-01	-4.722000000000E-01	8.800000000000E-03
	Si100	Si	1.900000000000E-02	1.408000000000E-01	4.912000000000E-01
	Si101	Si	1.496000000000E-01	1.408000000000E-01	-3.782000000000E-01
	Si102	Si	1.900000000000E-02	-4.722000000000E-01	-1.218000000000E-01
	Si103	Si	-1.496000000000E-01	4.722000000000E-01	-8.800000000000E-03
	Si104	Si	-1.900000000000E-02	-1.408000000000E-01	-4.912000000000E-01
	Si105	Si	7.800000000000E-03	-1.004000000000E-01	2.616000000000E-01
	Si106	Si	1.380000000000E-01	-2.538000000000E-01	2.384000000000E-01
	Si107	Si	-7.800000000000E-03	2.538000000000E-01	-1.082000000000E-01
	Si108	Si	-1.380000000000E-01	1.004000000000E-01	-3.918000000000E-01
	Si109	Si	-7.800000000000E-03	1.004000000000E-01	-2.616000000000E-01
	Si110	Si	-1.380000000000E-01	2.538000000000E-01	-2.384000000000E-01
	Si111	Si	7.800000000000E-03	-2.538000000000E-01	1.082000000000E-01
	Si112	Si	1.380000000000E-01	-1.004000000000E-01	3.918000000000E-01
	Si113	Si	3.500000000000E-01	-4.796000000000E-01	2.088000000000E-01
	Si114	Si	-1.884000000000E-01	1.412000000000E-01	2.912000000000E-01
	Si115	Si	-3.500000000000E-01	-1.412000000000E-01	1.704000000000E-01
	Si116	Si	1.884000000000E-01	4.796000000000E-01	3.296000000000E-01
	Si117	Si	-3.500000000000E-01	4.796000000000E-01	-2.088000000000E-01
	Si118	Si	1.884000000000E-01	-1.412000000000E-01	-2.912000000000E-01
	Si119	Si	3.500000000000E-01	1.412000000000E-01	-1.704000000000E-01
	Si120	Si	-1.884000000000E-01	-4.796000000000E-01	-3.296000000000E-01
	Si121	Si	1.917000000000E-01	2.400000000000E-01	1.049000000000E-01
	Si122	Si	-3.649000000000E-01	8.680000000000E-02	3.951000000000E-01
	Si123	Si	-1.917000000000E-01	-8.680000000000E-02	4.830000000000E-02
	Si124	Si	3.649000000000E-01	-2.400000000000E-01	4.517000000000E-01
	Si125	Si	-1.917000000000E-01	-2.400000000000E-01	-1.049000000000E-01
	Si126	Si	3.649000000000E-01	-8.680000000000E-02	-3.951000000000E-01
	Si127	Si	1.917000000000E-01	8.680000000000E-02	-4.830000000000E-02
	Si128	Si	-3.649000000000E-01	2.400000000000E-01	-4.517000000000E-01
	Si129	Si	-3.861000000000E-01	-2.460000000000E-01	3.019000000000E-01
	Si130	Si	-4.790000000000E-02	3.120000000000E-01	1.981000000000E-01
	Si131	Si	3.861000000000E-01	-3.120000000000E-01	1.401000000000E-01
	Si132	Si	4.790000000000E-02	2.460000000000E-01	3.599000000000E-01
	Si133	Si	3.861000000000E-01	2.460000000000E-01	-3.019000000000E-01
	Si134	Si	4.790000000000E-02	-3.120000000000E-01	-1.981000000000E-01
	Si135	Si	-3.861000000000E-01	3.120000000000E-01	-1.401000000000E-01
	Si136	Si	-4.790000000000E-02	-2.460000000000E-01	-3.599000000000E-01
	Si137	Si	3.270000000000E-02	7.430000000000E-02	2.028000000000E-01
	Si138	Si	3.715000000000E-01	-1.701000000000E-01	2.972000000000E-01
	Si139	Si	-3.270000000000E-02	1.701000000000E-01	4.160000000000E-02
	Si140	Si	-3.715000000000E-01	-7.430000000000E-02	4.584000000000E-01
	Si141	Si	-3.270000000000E-02	-7.430000000000E-02	-2.028000000000E-01
	Si142	Si	-3.715000000000E-01	1.701000000000E-01	-2.972000000000E-01
	Si143	Si	3.270000000000E-02	-1.701000000000E-01	-4.160000000000E-02
	Si144	Si	3.715000000000E-01	7.430000000000E-02	-4.584000000000E-01
