data BOZ
_chemical_name_common		'BOZ'
_cell_length_a		19.20458336
_cell_length_b		19.20458336
_cell_length_c		14.07700000
_cell_angle_alpha		90.000000
_cell_angle_beta		90.000000
_cell_angle_gamma		43.230301
_space group_name_H-M_alt		'P 1'
_space_group_IT_number		1

loop_
	_atom_site_label
	_atom_site_type_symbol
	_atom_site_fract_x
	_atom_site_fract_y
	_atom_site_fract_z
	O1	O	-2.802000000000E-01	-2.802000000000E-01	1.569000000000E-01
	O2	O	2.802000000000E-01	2.802000000000E-01	-3.431000000000E-01
	O3	O	2.802000000000E-01	2.802000000000E-01	-1.569000000000E-01
	O4	O	-2.802000000000E-01	-2.802000000000E-01	3.431000000000E-01
	O5	O	-3.203000000000E-01	-1.351000000000E-01	2.500000000000E-01
	O6	O	3.203000000000E-01	1.351000000000E-01	-2.500000000000E-01
	O7	O	1.351000000000E-01	3.203000000000E-01	-2.500000000000E-01
	O8	O	-1.351000000000E-01	-3.203000000000E-01	2.500000000000E-01
	O9	O	-4.063000000000E-01	1.519000000000E-01	2.500000000000E-01
	O10	O	4.063000000000E-01	-1.519000000000E-01	-2.500000000000E-01
	O11	O	-1.519000000000E-01	4.063000000000E-01	-2.500000000000E-01
	O12	O	1.519000000000E-01	-4.063000000000E-01	2.500000000000E-01
	O13	O	-4.860000000000E-01	1.764000000000E-01	8.400000000000E-02
	O14	O	4.860000000000E-01	-1.764000000000E-01	-4.160000000000E-01
	O15	O	-1.764000000000E-01	4.860000000000E-01	-8.400000000000E-02
	O16	O	1.764000000000E-01	-4.860000000000E-01	4.160000000000E-01
	O17	O	4.860000000000E-01	-1.764000000000E-01	-8.400000000000E-02
	O18	O	-4.860000000000E-01	1.764000000000E-01	4.160000000000E-01
	O19	O	1.764000000000E-01	-4.860000000000E-01	8.400000000000E-02
	O20	O	-1.764000000000E-01	4.860000000000E-01	-4.160000000000E-01
	O21	O	-3.057000000000E-01	1.015000000000E-01	9.110000000000E-02
	O22	O	3.057000000000E-01	-1.015000000000E-01	-4.089000000000E-01
	O23	O	-1.015000000000E-01	3.057000000000E-01	-9.110000000000E-02
	O24	O	1.015000000000E-01	-3.057000000000E-01	4.089000000000E-01
	O25	O	3.057000000000E-01	-1.015000000000E-01	-9.110000000000E-02
	O26	O	-3.057000000000E-01	1.015000000000E-01	4.089000000000E-01
	O27	O	1.015000000000E-01	-3.057000000000E-01	9.110000000000E-02
	O28	O	-1.015000000000E-01	3.057000000000E-01	-4.089000000000E-01
	O29	O	-3.311000000000E-01	-7.700000000000E-03	1.568000000000E-01
	O30	O	3.311000000000E-01	7.700000000000E-03	-3.432000000000E-01
	O31	O	7.700000000000E-03	3.311000000000E-01	-1.568000000000E-01
	O32	O	-7.700000000000E-03	-3.311000000000E-01	3.432000000000E-01
	O33	O	3.311000000000E-01	7.700000000000E-03	-1.568000000000E-01
	O34	O	-3.311000000000E-01	-7.700000000000E-03	3.432000000000E-01
	O35	O	-7.700000000000E-03	-3.311000000000E-01	1.568000000000E-01
	O36	O	7.700000000000E-03	3.311000000000E-01	-3.432000000000E-01
	O37	O	1.909000000000E-01	-9.410000000000E-02	2.500000000000E-01
	O38	O	-1.909000000000E-01	9.410000000000E-02	-2.500000000000E-01
	O39	O	9.410000000000E-02	-1.909000000000E-01	-2.500000000000E-01
	O40	O	-9.410000000000E-02	1.909000000000E-01	2.500000000000E-01
	O41	O	2.558000000000E-01	-9.080000000000E-02	8.690000000000E-02
	O42	O	-2.558000000000E-01	9.080000000000E-02	-4.131000000000E-01
	O43	O	9.080000000000E-02	-2.558000000000E-01	-8.690000000000E-02
	O44	O	-9.080000000000E-02	2.558000000000E-01	4.131000000000E-01
	O45	O	-2.558000000000E-01	9.080000000000E-02	-8.690000000000E-02
	O46	O	2.558000000000E-01	-9.080000000000E-02	4.131000000000E-01
	O47	O	-9.080000000000E-02	2.558000000000E-01	8.690000000000E-02
	O48	O	9.080000000000E-02	-2.558000000000E-01	-4.131000000000E-01
	O49	O	1.351000000000E-01	-1.107000000000E-01	8.820000000000E-02
	O50	O	-1.351000000000E-01	1.107000000000E-01	-4.118000000000E-01
	O51	O	1.107000000000E-01	-1.351000000000E-01	-8.820000000000E-02
	O52	O	-1.107000000000E-01	1.351000000000E-01	4.118000000000E-01
	O53	O	-1.351000000000E-01	1.107000000000E-01	-8.820000000000E-02
	O54	O	1.351000000000E-01	-1.107000000000E-01	4.118000000000E-01
	O55	O	-1.107000000000E-01	1.351000000000E-01	8.820000000000E-02
	O56	O	1.107000000000E-01	-1.351000000000E-01	-4.118000000000E-01
	O57	O	6.440000000000E-02	6.440000000000E-02	1.365000000000E-01
	O58	O	-6.440000000000E-02	-6.440000000000E-02	-3.635000000000E-01
	O59	O	-6.440000000000E-02	-6.440000000000E-02	-1.365000000000E-01
	O60	O	6.440000000000E-02	6.440000000000E-02	3.635000000000E-01
	O61	O	-3.429000000000E-01	-3.429000000000E-01	2.500000000000E-01
	O62	O	3.429000000000E-01	3.429000000000E-01	-2.500000000000E-01
	O63	O	-2.457000000000E-01	-4.311000000000E-01	8.740000000000E-02
	O64	O	2.457000000000E-01	4.311000000000E-01	-4.126000000000E-01
	O65	O	4.311000000000E-01	2.457000000000E-01	-8.740000000000E-02
	O66	O	-4.311000000000E-01	-2.457000000000E-01	4.126000000000E-01
	O67	O	2.457000000000E-01	4.311000000000E-01	-8.740000000000E-02
	O68	O	-2.457000000000E-01	-4.311000000000E-01	4.126000000000E-01
	O69	O	-4.311000000000E-01	-2.457000000000E-01	8.740000000000E-02
	O70	O	4.311000000000E-01	2.457000000000E-01	-4.126000000000E-01
	O71	O	-1.650000000000E-01	-1.650000000000E-01	2.500000000000E-01
	O72	O	1.650000000000E-01	1.650000000000E-01	-2.500000000000E-01
	O73	O	2.890000000000E-01	-2.188000000000E-01	-2.920000000000E-02
	O74	O	-2.890000000000E-01	2.188000000000E-01	4.708000000000E-01
	O75	O	2.188000000000E-01	-2.890000000000E-01	2.920000000000E-02
	O76	O	-2.188000000000E-01	2.890000000000E-01	-4.708000000000E-01
	O77	O	-2.890000000000E-01	2.188000000000E-01	2.920000000000E-02
	O78	O	2.890000000000E-01	-2.188000000000E-01	-4.708000000000E-01
	O79	O	-2.188000000000E-01	2.890000000000E-01	-2.920000000000E-02
	O80	O	2.188000000000E-01	-2.890000000000E-01	4.708000000000E-01
	O81	O	4.421000000000E-01	-2.499000000000E-01	2.590000000000E-02
	O82	O	-4.421000000000E-01	2.499000000000E-01	-4.741000000000E-01
	O83	O	2.499000000000E-01	-4.421000000000E-01	-2.590000000000E-02
	O84	O	-2.499000000000E-01	4.421000000000E-01	4.741000000000E-01
	O85	O	-4.421000000000E-01	2.499000000000E-01	-2.590000000000E-02
	O86	O	4.421000000000E-01	-2.499000000000E-01	4.741000000000E-01
	O87	O	-2.499000000000E-01	4.421000000000E-01	2.590000000000E-02
	O88	O	2.499000000000E-01	-4.421000000000E-01	-4.741000000000E-01
	O89	O	3.732000000000E-01	3.732000000000E-01	4.530000000000E-02
	O90	O	-3.732000000000E-01	-3.732000000000E-01	-4.547000000000E-01
	O91	O	-3.732000000000E-01	-3.732000000000E-01	-4.530000000000E-02
	O92	O	3.732000000000E-01	3.732000000000E-01	4.547000000000E-01
	Si93	Si	-3.825000000000E-01	1.055000000000E-01	1.449000000000E-01
	Si94	Si	3.825000000000E-01	-1.055000000000E-01	-3.551000000000E-01
	Si95	Si	-1.055000000000E-01	3.825000000000E-01	-1.449000000000E-01
	Si96	Si	1.055000000000E-01	-3.825000000000E-01	3.551000000000E-01
	Si97	Si	3.825000000000E-01	-1.055000000000E-01	-1.449000000000E-01
	Si98	Si	-3.825000000000E-01	1.055000000000E-01	3.551000000000E-01
	Si99	Si	1.055000000000E-01	-3.825000000000E-01	1.449000000000E-01
	Si100	Si	-1.055000000000E-01	3.825000000000E-01	-3.551000000000E-01
	Si101	Si	1.610000000000E-01	-5.720000000000E-02	1.411000000000E-01
	Si102	Si	-1.610000000000E-01	5.720000000000E-02	-3.589000000000E-01
	Si103	Si	5.720000000000E-02	-1.610000000000E-01	-1.411000000000E-01
	Si104	Si	-5.720000000000E-02	1.610000000000E-01	3.589000000000E-01
	Si105	Si	-1.610000000000E-01	5.720000000000E-02	-1.411000000000E-01
	Si106	Si	1.610000000000E-01	-5.720000000000E-02	3.589000000000E-01
	Si107	Si	-5.720000000000E-02	1.610000000000E-01	1.411000000000E-01
	Si108	Si	5.720000000000E-02	-1.610000000000E-01	-3.589000000000E-01
	Si109	Si	3.233000000000E-01	-1.657000000000E-01	-2.000000000000E-03
	Si110	Si	-3.233000000000E-01	1.657000000000E-01	4.980000000000E-01
	Si111	Si	1.657000000000E-01	-3.233000000000E-01	2.000000000000E-03
	Si112	Si	-1.657000000000E-01	3.233000000000E-01	-4.980000000000E-01
	Si113	Si	-3.233000000000E-01	1.657000000000E-01	2.000000000000E-03
	Si114	Si	3.233000000000E-01	-1.657000000000E-01	-4.980000000000E-01
	Si115	Si	-1.657000000000E-01	3.233000000000E-01	-2.000000000000E-03
	Si116	Si	1.657000000000E-01	-3.233000000000E-01	4.980000000000E-01
	Si117	Si	4.694000000000E-01	2.606000000000E-01	4.300000000000E-03
	Si118	Si	-4.694000000000E-01	-2.606000000000E-01	-4.957000000000E-01
	Si119	Si	-2.606000000000E-01	-4.694000000000E-01	-4.300000000000E-03
	Si120	Si	2.606000000000E-01	4.694000000000E-01	4.957000000000E-01
	Si121	Si	-4.694000000000E-01	-2.606000000000E-01	-4.300000000000E-03
	Si122	Si	4.694000000000E-01	2.606000000000E-01	4.957000000000E-01
	Si123	Si	2.606000000000E-01	4.694000000000E-01	4.300000000000E-03
	Si124	Si	-2.606000000000E-01	-4.694000000000E-01	-4.957000000000E-01
	Si125	Si	-2.876000000000E-01	-7.800000000000E-02	2.500000000000E-01
	Si126	Si	2.876000000000E-01	7.800000000000E-02	-2.500000000000E-01
	Si127	Si	7.800000000000E-02	2.876000000000E-01	-2.500000000000E-01
	Si128	Si	-7.800000000000E-02	-2.876000000000E-01	2.500000000000E-01
	Si129	Si	-3.251000000000E-01	-3.251000000000E-01	1.447000000000E-01
	Si130	Si	3.251000000000E-01	3.251000000000E-01	-3.553000000000E-01
	Si131	Si	3.251000000000E-01	3.251000000000E-01	-1.447000000000E-01
	Si132	Si	-3.251000000000E-01	-3.251000000000E-01	3.553000000000E-01
	Si133	Si	1.886000000000E-01	-1.886000000000E-01	0.000000000000E+00
	Si134	Si	-1.886000000000E-01	1.886000000000E-01	5.000000000000E-01
	Si135	Si	-1.886000000000E-01	1.886000000000E-01	0.000000000000E+00
	Si136	Si	1.886000000000E-01	-1.886000000000E-01	5.000000000000E-01
	Si137	Si	-2.539000000000E-01	-2.539000000000E-01	2.500000000000E-01
	Si138	Si	2.539000000000E-01	2.539000000000E-01	-2.500000000000E-01
