data BPH
_chemical_name_common		'BPH'
_cell_length_a		13.05700000
_cell_length_b		13.05700000
_cell_length_c		12.96900000
_cell_angle_alpha		90.000000
_cell_angle_beta		90.000000
_cell_angle_gamma		120.000000
_space group_name_H-M_alt		'P 1'
_space_group_IT_number		1

loop_
	_atom_site_label
	_atom_site_type_symbol
	_atom_site_fract_x
	_atom_site_fract_y
	_atom_site_fract_z
	O1	O	4.180000000000E-01	2.216000000000E-01	3.073000000000E-01
	O2	O	-2.216000000000E-01	1.964000000000E-01	3.073000000000E-01
	O3	O	-1.964000000000E-01	-4.180000000000E-01	3.073000000000E-01
	O4	O	1.964000000000E-01	-2.216000000000E-01	-3.073000000000E-01
	O5	O	-4.180000000000E-01	-1.964000000000E-01	-3.073000000000E-01
	O6	O	2.216000000000E-01	4.180000000000E-01	-3.073000000000E-01
	O7	O	2.216000000000E-01	4.180000000000E-01	3.073000000000E-01
	O8	O	-4.180000000000E-01	-1.964000000000E-01	3.073000000000E-01
	O9	O	1.964000000000E-01	-2.216000000000E-01	3.073000000000E-01
	O10	O	4.180000000000E-01	2.216000000000E-01	-3.073000000000E-01
	O11	O	-1.964000000000E-01	-4.180000000000E-01	-3.073000000000E-01
	O12	O	-2.216000000000E-01	1.964000000000E-01	-3.073000000000E-01
	O13	O	-4.016000000000E-01	5.551115123126E-17	2.364000000000E-01
	O14	O	-3.927319060292E-17	-4.016000000000E-01	2.364000000000E-01
	O15	O	4.016000000000E-01	4.016000000000E-01	2.364000000000E-01
	O16	O	-4.016000000000E-01	-8.326672684689E-17	-2.364000000000E-01
	O17	O	4.016000000000E-01	4.016000000000E-01	-2.364000000000E-01
	O18	O	3.927319060292E-17	-4.016000000000E-01	-2.364000000000E-01
	O19	O	-4.336000000000E-01	3.605000000000E-01	1.655000000000E-01
	O20	O	-3.605000000000E-01	2.059000000000E-01	1.655000000000E-01
	O21	O	-2.059000000000E-01	4.336000000000E-01	1.655000000000E-01
	O22	O	2.059000000000E-01	-3.605000000000E-01	-1.655000000000E-01
	O23	O	4.336000000000E-01	-2.059000000000E-01	-1.655000000000E-01
	O24	O	3.605000000000E-01	-4.336000000000E-01	-1.655000000000E-01
	O25	O	3.605000000000E-01	-4.336000000000E-01	1.655000000000E-01
	O26	O	4.336000000000E-01	-2.059000000000E-01	1.655000000000E-01
	O27	O	2.059000000000E-01	-3.605000000000E-01	1.655000000000E-01
	O28	O	-4.336000000000E-01	3.605000000000E-01	-1.655000000000E-01
	O29	O	-2.059000000000E-01	4.336000000000E-01	-1.655000000000E-01
	O30	O	-3.605000000000E-01	2.059000000000E-01	-1.655000000000E-01
	O31	O	-4.195000000000E-01	4.387000000000E-01	3.548000000000E-01
	O32	O	-4.387000000000E-01	1.418000000000E-01	3.548000000000E-01
	O33	O	-1.418000000000E-01	4.195000000000E-01	3.548000000000E-01
	O34	O	1.418000000000E-01	-4.387000000000E-01	-3.548000000000E-01
	O35	O	4.195000000000E-01	-1.418000000000E-01	-3.548000000000E-01
	O36	O	4.387000000000E-01	-4.195000000000E-01	-3.548000000000E-01
	O37	O	4.387000000000E-01	-4.195000000000E-01	3.548000000000E-01
	O38	O	4.195000000000E-01	-1.418000000000E-01	3.548000000000E-01
	O39	O	1.418000000000E-01	-4.387000000000E-01	3.548000000000E-01
	O40	O	-4.195000000000E-01	4.387000000000E-01	-3.548000000000E-01
	O41	O	-1.418000000000E-01	4.195000000000E-01	-3.548000000000E-01
	O42	O	-4.387000000000E-01	1.418000000000E-01	-3.548000000000E-01
	O43	O	3.314000000000E-01	1.110223024625E-16	3.647000000000E-01
	O44	O	-1.963659530146E-17	3.314000000000E-01	3.647000000000E-01
	O45	O	-3.314000000000E-01	-3.314000000000E-01	3.647000000000E-01
	O46	O	3.314000000000E-01	1.387778780781E-16	-3.647000000000E-01
	O47	O	-3.314000000000E-01	-3.314000000000E-01	-3.647000000000E-01
	O48	O	1.963659530146E-17	3.314000000000E-01	-3.647000000000E-01
	O49	O	-4.380000000000E-01	-2.665000000000E-01	-5.000000000000E-01
	O50	O	2.665000000000E-01	-1.715000000000E-01	-5.000000000000E-01
	O51	O	1.715000000000E-01	4.380000000000E-01	-5.000000000000E-01
	O52	O	-1.715000000000E-01	2.665000000000E-01	-5.000000000000E-01
	O53	O	4.380000000000E-01	1.715000000000E-01	-5.000000000000E-01
	O54	O	-2.665000000000E-01	-4.380000000000E-01	-5.000000000000E-01
	O55	O	3.333333333333E-01	-3.333333333333E-01	0.000000000000E+00
	O56	O	-3.333333333333E-01	3.333333333333E-01	0.000000000000E+00
	Si57	Si	4.916000000000E-01	3.557000000000E-01	2.659000000000E-01
	Si58	Si	-3.557000000000E-01	1.359000000000E-01	2.659000000000E-01
	Si59	Si	-1.359000000000E-01	-4.916000000000E-01	2.659000000000E-01
	Si60	Si	1.359000000000E-01	-3.557000000000E-01	-2.659000000000E-01
	Si61	Si	-4.916000000000E-01	-1.359000000000E-01	-2.659000000000E-01
	Si62	Si	3.557000000000E-01	4.916000000000E-01	-2.659000000000E-01
	Si63	Si	3.557000000000E-01	4.916000000000E-01	2.659000000000E-01
	Si64	Si	-4.916000000000E-01	-1.359000000000E-01	2.659000000000E-01
	Si65	Si	1.359000000000E-01	-3.557000000000E-01	2.659000000000E-01
	Si66	Si	4.916000000000E-01	3.557000000000E-01	-2.659000000000E-01
	Si67	Si	-1.359000000000E-01	-4.916000000000E-01	-2.659000000000E-01
	Si68	Si	-3.557000000000E-01	1.359000000000E-01	-2.659000000000E-01
	Si69	Si	-4.371000000000E-01	-3.033000000000E-01	3.817000000000E-01
	Si70	Si	3.033000000000E-01	-1.338000000000E-01	3.817000000000E-01
	Si71	Si	1.338000000000E-01	4.371000000000E-01	3.817000000000E-01
	Si72	Si	-1.338000000000E-01	3.033000000000E-01	-3.817000000000E-01
	Si73	Si	4.371000000000E-01	1.338000000000E-01	-3.817000000000E-01
	Si74	Si	-3.033000000000E-01	-4.371000000000E-01	-3.817000000000E-01
	Si75	Si	-3.033000000000E-01	-4.371000000000E-01	3.817000000000E-01
	Si76	Si	4.371000000000E-01	1.338000000000E-01	3.817000000000E-01
	Si77	Si	-1.338000000000E-01	3.033000000000E-01	3.817000000000E-01
	Si78	Si	-4.371000000000E-01	-3.033000000000E-01	-3.817000000000E-01
	Si79	Si	1.338000000000E-01	4.371000000000E-01	-3.817000000000E-01
	Si80	Si	3.033000000000E-01	-1.338000000000E-01	-3.817000000000E-01
	Si81	Si	3.333333333333E-01	-3.333333333333E-01	1.239000000000E-01
	Si82	Si	-3.333333333333E-01	3.333333333333E-01	-1.239000000000E-01
	Si83	Si	-3.333333333333E-01	3.333333333333E-01	1.239000000000E-01
	Si84	Si	3.333333333333E-01	-3.333333333333E-01	-1.239000000000E-01
