data BSV
_chemical_name_common		'BSV'
_cell_length_a		14.94067027
_cell_length_b		14.94067027
_cell_length_c		14.94067027
_cell_angle_alpha		109.471221
_cell_angle_beta		109.471221
_cell_angle_gamma		109.471221
_space group_name_H-M_alt		'P 1'
_space_group_IT_number		1

loop_
	_atom_site_label
	_atom_site_type_symbol
	_atom_site_fract_x
	_atom_site_fract_y
	_atom_site_fract_z
	O1	O	4.022000000000E-01	2.410000000000E-01	-4.816000000000E-01
	O2	O	2.226000000000E-01	-1.162000000000E-01	-1.840000000000E-02
	O3	O	9.780000000000E-02	-3.838000000000E-01	-1.612000000000E-01
	O4	O	2.774000000000E-01	2.590000000000E-01	-3.388000000000E-01
	O5	O	-4.816000000000E-01	4.022000000000E-01	2.410000000000E-01
	O6	O	2.410000000000E-01	-4.816000000000E-01	4.022000000000E-01
	O7	O	-3.388000000000E-01	2.774000000000E-01	2.590000000000E-01
	O8	O	-1.162000000000E-01	-1.840000000000E-02	2.226000000000E-01
	O9	O	-1.840000000000E-02	2.226000000000E-01	-1.162000000000E-01
	O10	O	-3.838000000000E-01	-1.612000000000E-01	9.780000000000E-02
	O11	O	-1.612000000000E-01	9.780000000000E-02	-3.838000000000E-01
	O12	O	2.590000000000E-01	-3.388000000000E-01	2.774000000000E-01
	O13	O	2.590000000000E-01	9.780000000000E-02	-1.840000000000E-02
	O14	O	-3.838000000000E-01	2.774000000000E-01	-4.816000000000E-01
	O15	O	-1.162000000000E-01	4.022000000000E-01	-3.388000000000E-01
	O16	O	2.410000000000E-01	2.226000000000E-01	-1.612000000000E-01
	O17	O	9.780000000000E-02	-1.840000000000E-02	2.590000000000E-01
	O18	O	-1.840000000000E-02	2.590000000000E-01	9.780000000000E-02
	O19	O	2.226000000000E-01	-1.612000000000E-01	2.410000000000E-01
	O20	O	-4.816000000000E-01	-3.838000000000E-01	2.774000000000E-01
	O21	O	2.774000000000E-01	-4.816000000000E-01	-3.838000000000E-01
	O22	O	-3.388000000000E-01	-1.162000000000E-01	4.022000000000E-01
	O23	O	4.022000000000E-01	-3.388000000000E-01	-1.162000000000E-01
	O24	O	-1.612000000000E-01	2.410000000000E-01	2.226000000000E-01
	O25	O	-4.022000000000E-01	-2.410000000000E-01	4.816000000000E-01
	O26	O	-2.226000000000E-01	1.162000000000E-01	1.840000000000E-02
	O27	O	-9.780000000000E-02	3.838000000000E-01	1.612000000000E-01
	O28	O	-2.774000000000E-01	-2.590000000000E-01	3.388000000000E-01
	O29	O	4.816000000000E-01	-4.022000000000E-01	-2.410000000000E-01
	O30	O	-2.410000000000E-01	4.816000000000E-01	-4.022000000000E-01
	O31	O	3.388000000000E-01	-2.774000000000E-01	-2.590000000000E-01
	O32	O	1.162000000000E-01	1.840000000000E-02	-2.226000000000E-01
	O33	O	1.840000000000E-02	-2.226000000000E-01	1.162000000000E-01
	O34	O	3.838000000000E-01	1.612000000000E-01	-9.780000000000E-02
	O35	O	1.612000000000E-01	-9.780000000000E-02	3.838000000000E-01
	O36	O	-2.590000000000E-01	3.388000000000E-01	-2.774000000000E-01
	O37	O	-2.590000000000E-01	-9.780000000000E-02	1.840000000000E-02
	O38	O	3.838000000000E-01	-2.774000000000E-01	4.816000000000E-01
	O39	O	1.162000000000E-01	-4.022000000000E-01	3.388000000000E-01
	O40	O	-2.410000000000E-01	-2.226000000000E-01	1.612000000000E-01
	O41	O	-9.780000000000E-02	1.840000000000E-02	-2.590000000000E-01
	O42	O	1.840000000000E-02	-2.590000000000E-01	-9.780000000000E-02
	O43	O	-2.226000000000E-01	1.612000000000E-01	-2.410000000000E-01
	O44	O	4.816000000000E-01	3.838000000000E-01	-2.774000000000E-01
	O45	O	-2.774000000000E-01	4.816000000000E-01	3.838000000000E-01
	O46	O	3.388000000000E-01	1.162000000000E-01	-4.022000000000E-01
	O47	O	-4.022000000000E-01	3.388000000000E-01	1.162000000000E-01
	O48	O	1.612000000000E-01	-2.410000000000E-01	-2.226000000000E-01
	O49	O	3.882000000000E-01	4.218000000000E-01	-4.316000000000E-01
	O50	O	3.534000000000E-01	-1.802000000000E-01	-6.840000000000E-02
	O51	O	1.118000000000E-01	-3.198000000000E-01	3.360000000000E-02
	O52	O	1.466000000000E-01	7.820000000000E-02	4.664000000000E-01
	O53	O	-4.316000000000E-01	3.882000000000E-01	4.218000000000E-01
	O54	O	4.218000000000E-01	-4.316000000000E-01	3.882000000000E-01
	O55	O	4.664000000000E-01	1.466000000000E-01	7.820000000000E-02
	O56	O	-1.802000000000E-01	-6.840000000000E-02	3.534000000000E-01
	O57	O	-6.840000000000E-02	3.534000000000E-01	-1.802000000000E-01
	O58	O	-3.198000000000E-01	3.360000000000E-02	1.118000000000E-01
	O59	O	3.360000000000E-02	1.118000000000E-01	-3.198000000000E-01
	O60	O	7.820000000000E-02	4.664000000000E-01	1.466000000000E-01
	O61	O	7.820000000000E-02	1.118000000000E-01	-6.840000000000E-02
	O62	O	-3.198000000000E-01	1.466000000000E-01	-4.316000000000E-01
	O63	O	-1.802000000000E-01	3.882000000000E-01	4.664000000000E-01
	O64	O	4.218000000000E-01	3.534000000000E-01	3.360000000000E-02
	O65	O	1.118000000000E-01	-6.840000000000E-02	7.820000000000E-02
	O66	O	-6.840000000000E-02	7.820000000000E-02	1.118000000000E-01
	O67	O	3.534000000000E-01	3.360000000000E-02	4.218000000000E-01
	O68	O	-4.316000000000E-01	-3.198000000000E-01	1.466000000000E-01
	O69	O	1.466000000000E-01	-4.316000000000E-01	-3.198000000000E-01
	O70	O	4.664000000000E-01	-1.802000000000E-01	3.882000000000E-01
	O71	O	3.882000000000E-01	4.664000000000E-01	-1.802000000000E-01
	O72	O	3.360000000000E-02	4.218000000000E-01	3.534000000000E-01
	O73	O	-3.882000000000E-01	-4.218000000000E-01	4.316000000000E-01
	O74	O	-3.534000000000E-01	1.802000000000E-01	6.840000000000E-02
	O75	O	-1.118000000000E-01	3.198000000000E-01	-3.360000000000E-02
	O76	O	-1.466000000000E-01	-7.820000000000E-02	-4.664000000000E-01
	O77	O	4.316000000000E-01	-3.882000000000E-01	-4.218000000000E-01
	O78	O	-4.218000000000E-01	4.316000000000E-01	-3.882000000000E-01
	O79	O	-4.664000000000E-01	-1.466000000000E-01	-7.820000000000E-02
	O80	O	1.802000000000E-01	6.840000000000E-02	-3.534000000000E-01
	O81	O	6.840000000000E-02	-3.534000000000E-01	1.802000000000E-01
	O82	O	3.198000000000E-01	-3.360000000000E-02	-1.118000000000E-01
	O83	O	-3.360000000000E-02	-1.118000000000E-01	3.198000000000E-01
	O84	O	-7.820000000000E-02	-4.664000000000E-01	-1.466000000000E-01
	O85	O	-7.820000000000E-02	-1.118000000000E-01	6.840000000000E-02
	O86	O	3.198000000000E-01	-1.466000000000E-01	4.316000000000E-01
	O87	O	1.802000000000E-01	-3.882000000000E-01	-4.664000000000E-01
	O88	O	-4.218000000000E-01	-3.534000000000E-01	-3.360000000000E-02
	O89	O	-1.118000000000E-01	6.840000000000E-02	-7.820000000000E-02
	O90	O	6.840000000000E-02	-7.820000000000E-02	-1.118000000000E-01
	O91	O	-3.534000000000E-01	-3.360000000000E-02	-4.218000000000E-01
	O92	O	4.316000000000E-01	3.198000000000E-01	-1.466000000000E-01
	O93	O	-1.466000000000E-01	4.316000000000E-01	3.198000000000E-01
	O94	O	-4.664000000000E-01	1.802000000000E-01	-3.882000000000E-01
	O95	O	-3.882000000000E-01	-4.664000000000E-01	1.802000000000E-01
	O96	O	-3.360000000000E-02	-4.218000000000E-01	-3.534000000000E-01
	Si97	Si	4.628000000000E-01	3.698000000000E-01	-3.950000000000E-01
	Si98	Si	2.648000000000E-01	-1.422000000000E-01	-1.050000000000E-01
	Si99	Si	3.720000000000E-02	-3.578000000000E-01	-9.300000000000E-02
	Si100	Si	2.352000000000E-01	1.302000000000E-01	-4.070000000000E-01
	Si101	Si	-3.950000000000E-01	4.628000000000E-01	3.698000000000E-01
	Si102	Si	3.698000000000E-01	-3.950000000000E-01	4.628000000000E-01
	Si103	Si	-4.070000000000E-01	2.352000000000E-01	1.302000000000E-01
	Si104	Si	-1.422000000000E-01	-1.050000000000E-01	2.648000000000E-01
	Si105	Si	-1.050000000000E-01	2.648000000000E-01	-1.422000000000E-01
	Si106	Si	-3.578000000000E-01	-9.300000000000E-02	3.720000000000E-02
	Si107	Si	-9.300000000000E-02	3.720000000000E-02	-3.578000000000E-01
	Si108	Si	1.302000000000E-01	-4.070000000000E-01	2.352000000000E-01
	Si109	Si	1.302000000000E-01	3.720000000000E-02	-1.050000000000E-01
	Si110	Si	-3.578000000000E-01	2.352000000000E-01	-3.950000000000E-01
	Si111	Si	-1.422000000000E-01	4.628000000000E-01	-4.070000000000E-01
	Si112	Si	3.698000000000E-01	2.648000000000E-01	-9.300000000000E-02
	Si113	Si	3.720000000000E-02	-1.050000000000E-01	1.302000000000E-01
	Si114	Si	-1.050000000000E-01	1.302000000000E-01	3.720000000000E-02
	Si115	Si	2.648000000000E-01	-9.300000000000E-02	3.698000000000E-01
	Si116	Si	-3.950000000000E-01	-3.578000000000E-01	2.352000000000E-01
	Si117	Si	2.352000000000E-01	-3.950000000000E-01	-3.578000000000E-01
	Si118	Si	-4.070000000000E-01	-1.422000000000E-01	4.628000000000E-01
	Si119	Si	4.628000000000E-01	-4.070000000000E-01	-1.422000000000E-01
	Si120	Si	-9.300000000000E-02	3.698000000000E-01	2.648000000000E-01
	Si121	Si	-4.628000000000E-01	-3.698000000000E-01	3.950000000000E-01
	Si122	Si	-2.648000000000E-01	1.422000000000E-01	1.050000000000E-01
	Si123	Si	-3.720000000000E-02	3.578000000000E-01	9.300000000000E-02
	Si124	Si	-2.352000000000E-01	-1.302000000000E-01	4.070000000000E-01
	Si125	Si	3.950000000000E-01	-4.628000000000E-01	-3.698000000000E-01
	Si126	Si	-3.698000000000E-01	3.950000000000E-01	-4.628000000000E-01
	Si127	Si	4.070000000000E-01	-2.352000000000E-01	-1.302000000000E-01
	Si128	Si	1.422000000000E-01	1.050000000000E-01	-2.648000000000E-01
	Si129	Si	1.050000000000E-01	-2.648000000000E-01	1.422000000000E-01
	Si130	Si	3.578000000000E-01	9.300000000000E-02	-3.720000000000E-02
	Si131	Si	9.300000000000E-02	-3.720000000000E-02	3.578000000000E-01
	Si132	Si	-1.302000000000E-01	4.070000000000E-01	-2.352000000000E-01
	Si133	Si	-1.302000000000E-01	-3.720000000000E-02	1.050000000000E-01
	Si134	Si	3.578000000000E-01	-2.352000000000E-01	3.950000000000E-01
	Si135	Si	1.422000000000E-01	-4.628000000000E-01	4.070000000000E-01
	Si136	Si	-3.698000000000E-01	-2.648000000000E-01	9.300000000000E-02
	Si137	Si	-3.720000000000E-02	1.050000000000E-01	-1.302000000000E-01
	Si138	Si	1.050000000000E-01	-1.302000000000E-01	-3.720000000000E-02
	Si139	Si	-2.648000000000E-01	9.300000000000E-02	-3.698000000000E-01
	Si140	Si	3.950000000000E-01	3.578000000000E-01	-2.352000000000E-01
	Si141	Si	-2.352000000000E-01	3.950000000000E-01	3.578000000000E-01
	Si142	Si	4.070000000000E-01	1.422000000000E-01	-4.628000000000E-01
	Si143	Si	-4.628000000000E-01	4.070000000000E-01	1.422000000000E-01
	Si144	Si	9.300000000000E-02	-3.698000000000E-01	-2.648000000000E-01
