data CAN
_chemical_name_common		'CAN'
_cell_length_a		24.98800000
_cell_length_b		24.98800000
_cell_length_c		5.25400000
_cell_angle_alpha		90.000000
_cell_angle_beta		90.000000
_cell_angle_gamma		120.000000
_space group_name_H-M_alt		'P 1'
_space_group_IT_number		1

loop_
	_atom_site_label
	_atom_site_type_symbol
	_atom_site_fract_x
	_atom_site_fract_y
	_atom_site_fract_z
	O1	O	-1.782500000000E-01	-4.163336342344E-17	0.000000000000E+00
	O2	O	1.782500000000E-01	2.775557561563E-17	-5.000000000000E-01
	O3	O	-2.052145228519E-17	-1.782500000000E-01	0.000000000000E+00
	O4	O	1.782500000000E-01	1.782500000000E-01	0.000000000000E+00
	O5	O	-1.782500000000E-01	-1.782500000000E-01	-5.000000000000E-01
	O6	O	2.052145228519E-17	1.782500000000E-01	-5.000000000000E-01
	O7	O	1.782500000000E-01	2.775557561563E-17	0.000000000000E+00
	O8	O	-1.782500000000E-01	-2.775557561563E-17	-5.000000000000E-01
	O9	O	2.052145228519E-17	1.782500000000E-01	0.000000000000E+00
	O10	O	-1.782500000000E-01	-1.782500000000E-01	0.000000000000E+00
	O11	O	1.782500000000E-01	1.782500000000E-01	-5.000000000000E-01
	O12	O	-2.052145228519E-17	-1.782500000000E-01	-5.000000000000E-01
	O13	O	-9.930000000000E-02	-1.986000000000E-01	2.500000000000E-01
	O14	O	9.930000000000E-02	1.986000000000E-01	-2.500000000000E-01
	O15	O	1.986000000000E-01	9.930000000000E-02	2.500000000000E-01
	O16	O	-9.930000000000E-02	9.930000000000E-02	2.500000000000E-01
	O17	O	9.930000000000E-02	-9.930000000000E-02	-2.500000000000E-01
	O18	O	-1.986000000000E-01	-9.930000000000E-02	-2.500000000000E-01
	O19	O	-2.175250000000E-01	6.495000000000E-02	2.500000000000E-01
	O20	O	-2.824750000000E-01	-6.495000000000E-02	-2.500000000000E-01
	O21	O	-6.495000000000E-02	-2.824750000000E-01	2.500000000000E-01
	O22	O	-2.175250000000E-01	-2.824750000000E-01	2.500000000000E-01
	O23	O	-2.824750000000E-01	-2.175250000000E-01	-2.500000000000E-01
	O24	O	6.495000000000E-02	-2.175250000000E-01	-2.500000000000E-01
	Si25	Si	2.095000000000E-01	1.684000000000E-01	2.500000000000E-01
	Si26	Si	-2.095000000000E-01	-1.684000000000E-01	-2.500000000000E-01
	Si27	Si	-1.684000000000E-01	4.110000000000E-02	2.500000000000E-01
	Si28	Si	-4.110000000000E-02	-2.095000000000E-01	2.500000000000E-01
	Si29	Si	4.110000000000E-02	2.095000000000E-01	-2.500000000000E-01
	Si30	Si	1.684000000000E-01	-4.110000000000E-02	-2.500000000000E-01
	Si31	Si	4.110000000000E-02	-1.684000000000E-01	-2.500000000000E-01
	Si32	Si	-2.095000000000E-01	-4.110000000000E-02	-2.500000000000E-01
	Si33	Si	1.684000000000E-01	2.095000000000E-01	-2.500000000000E-01
	Si34	Si	-1.684000000000E-01	-2.095000000000E-01	2.500000000000E-01
	Si35	Si	2.095000000000E-01	4.110000000000E-02	2.500000000000E-01
	Si36	Si	-4.110000000000E-02	1.684000000000E-01	2.500000000000E-01
	O37	O	-2.052145228519E-17	3.217500000000E-01	0.000000000000E+00
	O38	O	-1.782500000000E-01	3.217500000000E-01	0.000000000000E+00
	O39	O	3.217500000000E-01	-1.782500000000E-01	0.000000000000E+00
	O40	O	3.217500000000E-01	3.217500000000E-01	0.000000000000E+00
	O41	O	-5.000000000000E-01	-1.782500000000E-01	0.000000000000E+00
	O42	O	1.782500000000E-01	-3.217500000000E-01	-5.000000000000E-01
	O43	O	-3.217500000000E-01	1.782500000000E-01	-5.000000000000E-01
	O44	O	-3.217500000000E-01	-3.217500000000E-01	-5.000000000000E-01
	O45	O	-5.000000000000E-01	3.217500000000E-01	0.000000000000E+00
	O46	O	-2.052145228519E-17	3.217500000000E-01	-5.000000000000E-01
	O47	O	-5.000000000000E-01	-1.782500000000E-01	-5.000000000000E-01
	O48	O	-5.000000000000E-01	3.217500000000E-01	-5.000000000000E-01
	O49	O	3.217500000000E-01	-5.000000000000E-01	0.000000000000E+00
	O50	O	-9.930000000000E-02	3.014000000000E-01	2.500000000000E-01
	O51	O	4.007000000000E-01	-1.986000000000E-01	2.500000000000E-01
	O52	O	4.007000000000E-01	3.014000000000E-01	2.500000000000E-01
	O53	O	1.782500000000E-01	-3.217500000000E-01	0.000000000000E+00
	O54	O	9.930000000000E-02	-3.014000000000E-01	-2.500000000000E-01
	O55	O	-4.007000000000E-01	1.986000000000E-01	-2.500000000000E-01
	O56	O	-4.007000000000E-01	-3.014000000000E-01	-2.500000000000E-01
	O57	O	-3.217500000000E-01	1.782500000000E-01	0.000000000000E+00
	O58	O	1.986000000000E-01	-4.007000000000E-01	2.500000000000E-01
	O59	O	-3.014000000000E-01	9.930000000000E-02	2.500000000000E-01
	O60	O	-3.014000000000E-01	-4.007000000000E-01	2.500000000000E-01
	O61	O	-3.217500000000E-01	-3.217500000000E-01	0.000000000000E+00
	O62	O	-9.930000000000E-02	-4.007000000000E-01	2.500000000000E-01
	O63	O	4.007000000000E-01	9.930000000000E-02	2.500000000000E-01
	O64	O	4.007000000000E-01	-4.007000000000E-01	2.500000000000E-01
	O65	O	-1.782500000000E-01	5.000000000000E-01	0.000000000000E+00
	O66	O	9.930000000000E-02	4.007000000000E-01	-2.500000000000E-01
	O67	O	-4.007000000000E-01	-9.930000000000E-02	-2.500000000000E-01
	O68	O	-4.007000000000E-01	4.007000000000E-01	-2.500000000000E-01
	O69	O	-1.782500000000E-01	3.217500000000E-01	-5.000000000000E-01
	O70	O	-1.986000000000E-01	4.007000000000E-01	-2.500000000000E-01
	O71	O	3.014000000000E-01	-9.930000000000E-02	-2.500000000000E-01
	O72	O	3.014000000000E-01	4.007000000000E-01	-2.500000000000E-01
	O73	O	3.217500000000E-01	-1.782500000000E-01	-5.000000000000E-01
	O74	O	-2.175250000000E-01	-4.350500000000E-01	2.500000000000E-01
	O75	O	2.824750000000E-01	6.495000000000E-02	2.500000000000E-01
	O76	O	2.824750000000E-01	-4.350500000000E-01	2.500000000000E-01
	O77	O	3.217500000000E-01	3.217500000000E-01	-5.000000000000E-01
	O78	O	-2.824750000000E-01	4.350500000000E-01	-2.500000000000E-01
	O79	O	2.175250000000E-01	-6.495000000000E-02	-2.500000000000E-01
	O80	O	2.175250000000E-01	4.350500000000E-01	-2.500000000000E-01
	O81	O	1.782500000000E-01	-5.000000000000E-01	-5.000000000000E-01
	O82	O	-6.495000000000E-02	2.175250000000E-01	2.500000000000E-01
	O83	O	4.350500000000E-01	-2.824750000000E-01	2.500000000000E-01
	O84	O	4.350500000000E-01	2.175250000000E-01	2.500000000000E-01
	O85	O	2.052145228519E-17	-3.217500000000E-01	-5.000000000000E-01
	O86	O	-2.175250000000E-01	2.175250000000E-01	2.500000000000E-01
	O87	O	2.824750000000E-01	-2.824750000000E-01	2.500000000000E-01
	O88	O	2.824750000000E-01	2.175250000000E-01	2.500000000000E-01
	O89	O	-5.000000000000E-01	1.782500000000E-01	-5.000000000000E-01
	O90	O	-2.824750000000E-01	2.824750000000E-01	-2.500000000000E-01
	O91	O	2.175250000000E-01	-2.175250000000E-01	-2.500000000000E-01
	O92	O	2.175250000000E-01	2.824750000000E-01	-2.500000000000E-01
	O93	O	-5.000000000000E-01	-3.217500000000E-01	-5.000000000000E-01
	O94	O	6.495000000000E-02	2.824750000000E-01	-2.500000000000E-01
	O95	O	-4.350500000000E-01	-2.175250000000E-01	-2.500000000000E-01
	O96	O	-4.350500000000E-01	2.824750000000E-01	-2.500000000000E-01
	O97	O	-3.217500000000E-01	-1.110223024625E-16	-5.000000000000E-01
	Si98	Si	2.095000000000E-01	-3.316000000000E-01	2.500000000000E-01
	Si99	Si	-2.905000000000E-01	1.684000000000E-01	2.500000000000E-01
	Si100	Si	-2.905000000000E-01	-3.316000000000E-01	2.500000000000E-01
	O101	O	1.782500000000E-01	-5.000000000000E-01	0.000000000000E+00
	Si102	Si	-2.095000000000E-01	3.316000000000E-01	-2.500000000000E-01
	Si103	Si	2.905000000000E-01	-1.684000000000E-01	-2.500000000000E-01
	Si104	Si	2.905000000000E-01	3.316000000000E-01	-2.500000000000E-01
	O105	O	-3.217500000000E-01	-1.110223024625E-16	0.000000000000E+00
	Si106	Si	-1.684000000000E-01	-4.589000000000E-01	2.500000000000E-01
	Si107	Si	3.316000000000E-01	4.110000000000E-02	2.500000000000E-01
	Si108	Si	3.316000000000E-01	-4.589000000000E-01	2.500000000000E-01
	O109	O	-3.217500000000E-01	-5.000000000000E-01	0.000000000000E+00
	Si110	Si	-4.110000000000E-02	2.905000000000E-01	2.500000000000E-01
	Si111	Si	4.589000000000E-01	-2.095000000000E-01	2.500000000000E-01
	Si112	Si	4.589000000000E-01	2.905000000000E-01	2.500000000000E-01
	O113	O	-3.217500000000E-01	-5.000000000000E-01	-5.000000000000E-01
	Si114	Si	4.110000000000E-02	-2.905000000000E-01	-2.500000000000E-01
	Si115	Si	-4.589000000000E-01	2.095000000000E-01	-2.500000000000E-01
	Si116	Si	-4.589000000000E-01	-2.905000000000E-01	-2.500000000000E-01
	O117	O	-1.782500000000E-01	5.000000000000E-01	-5.000000000000E-01
	Si118	Si	1.684000000000E-01	4.589000000000E-01	-2.500000000000E-01
	Si119	Si	-3.316000000000E-01	-4.110000000000E-02	-2.500000000000E-01
	Si120	Si	-3.316000000000E-01	4.589000000000E-01	-2.500000000000E-01
	O121	O	3.217500000000E-01	2.775557561563E-17	-5.000000000000E-01
	Si122	Si	4.110000000000E-02	3.316000000000E-01	-2.500000000000E-01
	Si123	Si	-4.589000000000E-01	-1.684000000000E-01	-2.500000000000E-01
	Si124	Si	-4.589000000000E-01	3.316000000000E-01	-2.500000000000E-01
	O125	O	3.217500000000E-01	-5.000000000000E-01	-5.000000000000E-01
	Si126	Si	-2.095000000000E-01	4.589000000000E-01	-2.500000000000E-01
	Si127	Si	2.905000000000E-01	-4.110000000000E-02	-2.500000000000E-01
	Si128	Si	2.905000000000E-01	4.589000000000E-01	-2.500000000000E-01
	O129	O	3.217500000000E-01	0.000000000000E+00	0.000000000000E+00
	Si130	Si	1.684000000000E-01	-2.905000000000E-01	-2.500000000000E-01
	Si131	Si	-3.316000000000E-01	2.095000000000E-01	-2.500000000000E-01
	Si132	Si	-3.316000000000E-01	-2.905000000000E-01	-2.500000000000E-01
	O133	O	2.052145228519E-17	-3.217500000000E-01	0.000000000000E+00
	Si134	Si	-1.684000000000E-01	2.905000000000E-01	2.500000000000E-01
	Si135	Si	3.316000000000E-01	-2.095000000000E-01	2.500000000000E-01
	Si136	Si	3.316000000000E-01	2.905000000000E-01	2.500000000000E-01
	O137	O	-5.000000000000E-01	1.782500000000E-01	0.000000000000E+00
	Si138	Si	2.095000000000E-01	-4.589000000000E-01	2.500000000000E-01
	Si139	Si	-2.905000000000E-01	4.110000000000E-02	2.500000000000E-01
	Si140	Si	-2.905000000000E-01	-4.589000000000E-01	2.500000000000E-01
	O141	O	-5.000000000000E-01	-3.217500000000E-01	0.000000000000E+00
	Si142	Si	-4.110000000000E-02	-3.316000000000E-01	2.500000000000E-01
	Si143	Si	4.589000000000E-01	1.684000000000E-01	2.500000000000E-01
	Si144	Si	4.589000000000E-01	-3.316000000000E-01	2.500000000000E-01
