data CAS
_chemical_name_common		'CAS'
_cell_length_a		7.53888188
_cell_length_b		15.07776376
_cell_length_c		17.22700000
_cell_angle_alpha		90.000000
_cell_angle_beta		90.000000
_cell_angle_gamma		40.802538
_space group_name_H-M_alt		'P 1'
_space_group_IT_number		1

loop_
	_atom_site_label
	_atom_site_type_symbol
	_atom_site_fract_x
	_atom_site_fract_y
	_atom_site_fract_z
	O1	O	1.730000000000E-01	8.650000000000E-02	1.159000000000E-01
	O2	O	-1.730000000000E-01	-8.650000000000E-02	-3.841000000000E-01
	O3	O	-1.730000000000E-01	-8.650000000000E-02	-1.159000000000E-01
	O4	O	1.730000000000E-01	8.650000000000E-02	3.841000000000E-01
	O5	O	5.000000000000E-01	-1.457687548427E-17	0.000000000000E+00
	O6	O	5.000000000000E-01	-1.457687548427E-17	5.000000000000E-01
	O7	O	-9.566999447395E-17	2.500000000000E-01	0.000000000000E+00
	O8	O	2.635740026272E-17	2.500000000000E-01	5.000000000000E-01
	O9	O	3.576000000000E-01	1.788000000000E-01	9.810000000000E-02
	O10	O	-3.576000000000E-01	3.212000000000E-01	-4.019000000000E-01
	O11	O	-3.576000000000E-01	3.212000000000E-01	-9.810000000000E-02
	O12	O	3.576000000000E-01	1.788000000000E-01	4.019000000000E-01
	O13	O	-2.369000000000E-01	1.315500000000E-01	1.318000000000E-01
	O14	O	2.369000000000E-01	-1.315500000000E-01	-3.682000000000E-01
	O15	O	-2.631000000000E-01	1.184500000000E-01	-1.318000000000E-01
	O16	O	2.631000000000E-01	-1.184500000000E-01	3.682000000000E-01
	O17	O	2.369000000000E-01	-1.315500000000E-01	-1.318000000000E-01
	O18	O	-2.369000000000E-01	1.315500000000E-01	3.682000000000E-01
	O19	O	2.631000000000E-01	-1.184500000000E-01	1.318000000000E-01
	O20	O	-2.631000000000E-01	1.184500000000E-01	-3.682000000000E-01
	O21	O	8.510000000000E-02	4.255000000000E-02	2.500000000000E-01
	O22	O	-8.510000000000E-02	-4.255000000000E-02	-2.500000000000E-01
	O23	O	5.000000000000E-01	2.500000000000E-01	0.000000000000E+00
	O24	O	5.000000000000E-01	2.500000000000E-01	5.000000000000E-01
	Si25	Si	2.576000000000E-01	1.288000000000E-01	5.340000000000E-02
	Si26	Si	-2.576000000000E-01	-1.288000000000E-01	-4.466000000000E-01
	Si27	Si	-2.576000000000E-01	-1.288000000000E-01	-5.340000000000E-02
	Si28	Si	2.576000000000E-01	1.288000000000E-01	4.466000000000E-01
	Si29	Si	7.090000000000E-02	3.545000000000E-02	1.574000000000E-01
	Si30	Si	-7.090000000000E-02	-3.545000000000E-02	-3.426000000000E-01
	Si31	Si	-7.090000000000E-02	-3.545000000000E-02	-1.574000000000E-01
	Si32	Si	7.090000000000E-02	3.545000000000E-02	3.426000000000E-01
	Si33	Si	4.711000000000E-01	2.355500000000E-01	9.030000000000E-02
	Si34	Si	-4.711000000000E-01	2.644500000000E-01	-4.097000000000E-01
	Si35	Si	-4.711000000000E-01	2.644500000000E-01	-9.030000000000E-02
	Si36	Si	4.711000000000E-01	2.355500000000E-01	4.097000000000E-01
	O37	O	5.000000000000E-01	-5.000000000000E-01	0.000000000000E+00
	O38	O	2.631000000000E-01	3.815500000000E-01	1.318000000000E-01
	O39	O	-3.576000000000E-01	-1.788000000000E-01	-4.019000000000E-01
	O40	O	-2.631000000000E-01	-3.815500000000E-01	-3.682000000000E-01
	O41	O	-1.730000000000E-01	4.135000000000E-01	-1.159000000000E-01
	O42	O	8.510000000000E-02	-4.574500000000E-01	2.500000000000E-01
	O43	O	-3.576000000000E-01	-1.788000000000E-01	-9.810000000000E-02
	O44	O	-8.510000000000E-02	4.574500000000E-01	-2.500000000000E-01
	O45	O	5.000000000000E-01	-5.000000000000E-01	5.000000000000E-01
	O46	O	-5.000000000000E-01	-2.500000000000E-01	0.000000000000E+00
	O47	O	3.576000000000E-01	-3.212000000000E-01	4.019000000000E-01
	O48	O	-5.000000000000E-01	-2.500000000000E-01	5.000000000000E-01
	O49	O	-1.730000000000E-01	4.135000000000E-01	-3.841000000000E-01
	Si50	Si	2.576000000000E-01	-3.712000000000E-01	5.340000000000E-02
	O51	O	-2.369000000000E-01	-3.684500000000E-01	1.318000000000E-01
	Si52	Si	-2.576000000000E-01	3.712000000000E-01	-4.466000000000E-01
	O53	O	-1.761403706150E-16	-2.500000000000E-01	0.000000000000E+00
	Si54	Si	-2.576000000000E-01	3.712000000000E-01	-5.340000000000E-02
	O55	O	2.369000000000E-01	3.684500000000E-01	-3.682000000000E-01
	Si56	Si	2.576000000000E-01	-3.712000000000E-01	4.466000000000E-01
	O57	O	1.730000000000E-01	-4.135000000000E-01	3.841000000000E-01
	Si58	Si	7.090000000000E-02	-4.645500000000E-01	1.574000000000E-01
	O59	O	-2.631000000000E-01	-3.815500000000E-01	-1.318000000000E-01
	Si60	Si	-7.090000000000E-02	4.645500000000E-01	-3.426000000000E-01
	O61	O	6.241187272125E-17	-2.500000000000E-01	5.000000000000E-01
	Si62	Si	-7.090000000000E-02	4.645500000000E-01	-1.574000000000E-01
	O63	O	2.631000000000E-01	3.815500000000E-01	3.682000000000E-01
	Si64	Si	7.090000000000E-02	-4.645500000000E-01	3.426000000000E-01
	O65	O	1.730000000000E-01	-4.135000000000E-01	1.159000000000E-01
	Si66	Si	4.711000000000E-01	-2.644500000000E-01	9.030000000000E-02
	O67	O	2.369000000000E-01	3.684500000000E-01	-1.318000000000E-01
	Si68	Si	-4.711000000000E-01	-2.355500000000E-01	-4.097000000000E-01
	O69	O	3.576000000000E-01	-3.212000000000E-01	9.810000000000E-02
	Si70	Si	-4.711000000000E-01	-2.355500000000E-01	-9.030000000000E-02
	O71	O	-2.369000000000E-01	-3.684500000000E-01	3.682000000000E-01
	Si72	Si	4.711000000000E-01	-2.644500000000E-01	4.097000000000E-01
