data CGF
_chemical_name_common		'CGF'
_cell_length_a		22.93378741
_cell_length_b		11.46689371
_cell_length_c		7.27300000
_cell_angle_alpha		85.901449
_cell_angle_beta		94.098551
_cell_angle_gamma		85.048519
_space group_name_H-M_alt		'P 1'
_space_group_IT_number		1

loop_
	_atom_site_label
	_atom_site_type_symbol
	_atom_site_fract_x
	_atom_site_fract_y
	_atom_site_fract_z
	O1	O	-1.070000000000E-01	-3.038000000000E-01	3.570000000000E-01
	O2	O	-1.519000000000E-01	-2.140000000000E-01	-3.570000000000E-01
	O3	O	1.070000000000E-01	3.038000000000E-01	-3.570000000000E-01
	O4	O	1.519000000000E-01	2.140000000000E-01	3.570000000000E-01
	O5	O	-3.790000000000E-02	-2.212000000000E-01	-3.890000000000E-01
	O6	O	-1.106000000000E-01	-7.580000000000E-02	3.890000000000E-01
	O7	O	3.790000000000E-02	2.212000000000E-01	3.890000000000E-01
	O8	O	1.106000000000E-01	7.580000000000E-02	-3.890000000000E-01
	O9	O	-5.660000000000E-02	3.234000000000E-01	1.917000000000E-01
	O10	O	1.617000000000E-01	-1.132000000000E-01	-1.917000000000E-01
	O11	O	5.660000000000E-02	-3.234000000000E-01	-1.917000000000E-01
	O12	O	-1.617000000000E-01	1.132000000000E-01	1.917000000000E-01
	O13	O	-4.180000000000E-02	3.488000000000E-01	-4.519000000000E-01
	O14	O	1.744000000000E-01	-8.360000000000E-02	4.519000000000E-01
	O15	O	4.180000000000E-02	-3.488000000000E-01	4.519000000000E-01
	O16	O	-1.744000000000E-01	8.360000000000E-02	-4.519000000000E-01
	O17	O	2.580000000000E-02	4.490000000000E-01	3.179000000000E-01
	O18	O	2.245000000000E-01	5.160000000000E-02	-3.179000000000E-01
	O19	O	-2.580000000000E-02	-4.490000000000E-01	-3.179000000000E-01
	O20	O	-2.245000000000E-01	-5.160000000000E-02	3.179000000000E-01
	O21	O	-2.330000000000E-02	-3.556000000000E-01	1.408000000000E-01
	O22	O	-1.778000000000E-01	-4.660000000000E-02	-1.408000000000E-01
	O23	O	2.330000000000E-02	3.556000000000E-01	-1.408000000000E-01
	O24	O	1.778000000000E-01	4.660000000000E-02	1.408000000000E-01
	O25	O	-1.176000000000E-01	-4.704000000000E-01	1.286000000000E-01
	O26	O	-2.352000000000E-01	-2.352000000000E-01	-1.286000000000E-01
	O27	O	1.176000000000E-01	4.704000000000E-01	-1.286000000000E-01
	O28	O	2.352000000000E-01	2.352000000000E-01	1.286000000000E-01
	O29	O	-1.242000000000E-01	-2.484000000000E-01	0.000000000000E+00
	O30	O	1.242000000000E-01	2.484000000000E-01	0.000000000000E+00
	O31	O	-9.090000000000E-02	4.054000000000E-01	-1.492000000000E-01
	O32	O	2.027000000000E-01	-1.818000000000E-01	1.492000000000E-01
	O33	O	9.090000000000E-02	-4.054000000000E-01	1.492000000000E-01
	O34	O	-2.027000000000E-01	1.818000000000E-01	-1.492000000000E-01
	O35	O	-1.683000000000E-01	3.366000000000E-01	7.530000000000E-02
	O36	O	1.683000000000E-01	-3.366000000000E-01	-7.530000000000E-02
	Si37	Si	1.083000000000E-01	-3.988000000000E-01	-6.170000000000E-02
	Si38	Si	-1.994000000000E-01	2.166000000000E-01	6.170000000000E-02
	Si39	Si	-1.083000000000E-01	3.988000000000E-01	6.170000000000E-02
	Si40	Si	1.994000000000E-01	-2.166000000000E-01	-6.170000000000E-02
	Si41	Si	-9.325000000000E-02	-3.447000000000E-01	1.561000000000E-01
	Si42	Si	-1.723500000000E-01	-1.865000000000E-01	-1.561000000000E-01
	Si43	Si	9.325000000000E-02	3.447000000000E-01	-1.561000000000E-01
	Si44	Si	1.723500000000E-01	1.865000000000E-01	1.561000000000E-01
	Si45	Si	-9.000000000000E-03	3.354000000000E-01	3.612000000000E-01
	Si46	Si	1.677000000000E-01	-1.800000000000E-02	-3.612000000000E-01
	Si47	Si	9.000000000000E-03	-3.354000000000E-01	-3.612000000000E-01
	Si48	Si	-1.677000000000E-01	1.800000000000E-02	3.612000000000E-01
	Si49	Si	-3.400000000000E-02	4.150000000000E-01	-2.649000000000E-01
	Si50	Si	2.075000000000E-01	-6.800000000000E-02	2.649000000000E-01
	Si51	Si	3.400000000000E-02	-4.150000000000E-01	2.649000000000E-01
	Si52	Si	-2.075000000000E-01	6.800000000000E-02	-2.649000000000E-01
	Si53	Si	-1.018000000000E-01	-2.036000000000E-01	-5.000000000000E-01
	Si54	Si	1.018000000000E-01	2.036000000000E-01	-5.000000000000E-01
	O55	O	-3.256000000000E-01	-8.360000000000E-02	4.519000000000E-01
	O56	O	-2.648000000000E-01	2.352000000000E-01	1.286000000000E-01
	O57	O	-3.481000000000E-01	2.140000000000E-01	3.570000000000E-01
	O58	O	3.758000000000E-01	-2.484000000000E-01	0.000000000000E+00
	O59	O	-4.582000000000E-01	-3.488000000000E-01	4.519000000000E-01
	O60	O	-3.758000000000E-01	2.484000000000E-01	0.000000000000E+00
	O61	O	-3.894000000000E-01	7.580000000000E-02	-3.890000000000E-01
	O62	O	4.091000000000E-01	4.054000000000E-01	-1.492000000000E-01
	O63	O	3.256000000000E-01	8.360000000000E-02	-4.519000000000E-01
	O64	O	-2.973000000000E-01	-1.818000000000E-01	1.492000000000E-01
	O65	O	3.930000000000E-01	-3.038000000000E-01	3.570000000000E-01
	O66	O	-4.091000000000E-01	-4.054000000000E-01	1.492000000000E-01
	O67	O	-4.742000000000E-01	4.490000000000E-01	3.179000000000E-01
	O68	O	2.973000000000E-01	1.818000000000E-01	-1.492000000000E-01
	O69	O	4.434000000000E-01	3.234000000000E-01	1.917000000000E-01
	O70	O	3.317000000000E-01	3.366000000000E-01	7.530000000000E-02
	O71	O	-2.755000000000E-01	5.160000000000E-02	-3.179000000000E-01
	O72	O	-3.317000000000E-01	-3.366000000000E-01	-7.530000000000E-02
	O73	O	4.621000000000E-01	-2.212000000000E-01	-3.890000000000E-01
	Si74	Si	-3.917000000000E-01	-3.988000000000E-01	-6.170000000000E-02
	O75	O	4.742000000000E-01	-4.490000000000E-01	-3.179000000000E-01
	Si76	Si	3.006000000000E-01	2.166000000000E-01	6.170000000000E-02
	O77	O	-3.383000000000E-01	-1.132000000000E-01	-1.917000000000E-01
	Si78	Si	3.917000000000E-01	3.988000000000E-01	6.170000000000E-02
	O79	O	2.755000000000E-01	-5.160000000000E-02	3.179000000000E-01
	Si80	Si	-3.006000000000E-01	-2.166000000000E-01	-6.170000000000E-02
	O81	O	-3.930000000000E-01	3.038000000000E-01	-3.570000000000E-01
	Si82	Si	4.067500000000E-01	-3.447000000000E-01	1.561000000000E-01
	O83	O	4.767000000000E-01	-3.556000000000E-01	1.408000000000E-01
	Si84	Si	3.276500000000E-01	-1.865000000000E-01	-1.561000000000E-01
	O85	O	-4.434000000000E-01	-3.234000000000E-01	-1.917000000000E-01
	Si86	Si	-4.067500000000E-01	3.447000000000E-01	-1.561000000000E-01
	O87	O	3.222000000000E-01	-4.660000000000E-02	-1.408000000000E-01
	Si88	Si	-3.276500000000E-01	1.865000000000E-01	1.561000000000E-01
	O89	O	3.894000000000E-01	-7.580000000000E-02	3.890000000000E-01
	Si90	Si	4.910000000000E-01	3.354000000000E-01	3.612000000000E-01
	O91	O	-4.767000000000E-01	3.556000000000E-01	-1.408000000000E-01
	Si92	Si	-3.323000000000E-01	-1.800000000000E-02	-3.612000000000E-01
	O93	O	3.383000000000E-01	1.132000000000E-01	1.917000000000E-01
	Si94	Si	-4.910000000000E-01	-3.354000000000E-01	-3.612000000000E-01
	O95	O	-3.222000000000E-01	4.660000000000E-02	1.408000000000E-01
	Si96	Si	3.323000000000E-01	1.800000000000E-02	3.612000000000E-01
	O97	O	3.481000000000E-01	-2.140000000000E-01	-3.570000000000E-01
	Si98	Si	4.660000000000E-01	4.150000000000E-01	-2.649000000000E-01
	O99	O	3.824000000000E-01	-4.704000000000E-01	1.286000000000E-01
	Si100	Si	-2.925000000000E-01	-6.800000000000E-02	2.649000000000E-01
	O101	O	4.582000000000E-01	3.488000000000E-01	-4.519000000000E-01
	Si102	Si	-4.660000000000E-01	-4.150000000000E-01	2.649000000000E-01
	O103	O	2.648000000000E-01	-2.352000000000E-01	-1.286000000000E-01
	Si104	Si	2.925000000000E-01	6.800000000000E-02	-2.649000000000E-01
	O105	O	-4.621000000000E-01	2.212000000000E-01	3.890000000000E-01
	Si106	Si	3.982000000000E-01	-2.036000000000E-01	-5.000000000000E-01
	O107	O	-3.824000000000E-01	4.704000000000E-01	-1.286000000000E-01
	Si108	Si	-3.982000000000E-01	2.036000000000E-01	-5.000000000000E-01
