data CHA
_chemical_name_common		'CHA'
_cell_length_a		18.60801696
_cell_length_b		18.60801696
_cell_length_c		9.30400848
_cell_angle_alpha		94.597246
_cell_angle_beta		94.597246
_cell_angle_gamma		94.597246
_space group_name_H-M_alt		'P 1'
_space_group_IT_number		1

loop_
	_atom_site_label
	_atom_site_type_symbol
	_atom_site_fract_x
	_atom_site_fract_y
	_atom_site_fract_z
	O1	O	1.235000000000E-02	1.593500000000E-01	2.470000000000E-02
	O2	O	1.235000000000E-02	1.235000000000E-02	3.187000000000E-01
	O3	O	1.593500000000E-01	1.235000000000E-02	2.470000000000E-02
	O4	O	-1.593500000000E-01	-1.235000000000E-02	-2.470000000000E-02
	O5	O	-1.235000000000E-02	-1.235000000000E-02	-3.187000000000E-01
	O6	O	-1.235000000000E-02	-1.593500000000E-01	-2.470000000000E-02
	O7	O	-7.170000000000E-02	7.170000000000E-02	-5.000000000000E-01
	O8	O	2.500000000000E-01	-7.170000000000E-02	1.434000000000E-01
	O9	O	7.170000000000E-02	2.500000000000E-01	-1.434000000000E-01
	O10	O	7.170000000000E-02	-7.170000000000E-02	5.000000000000E-01
	O11	O	2.500000000000E-01	7.170000000000E-02	-1.434000000000E-01
	O12	O	-7.170000000000E-02	2.500000000000E-01	1.434000000000E-01
	O13	O	1.258750000000E-01	-5.450000000000E-02	2.517500000000E-01
	O14	O	1.258750000000E-01	1.258750000000E-01	-1.090000000000E-01
	O15	O	-5.450000000000E-02	1.258750000000E-01	2.517500000000E-01
	O16	O	5.450000000000E-02	-1.258750000000E-01	-2.517500000000E-01
	O17	O	-1.258750000000E-01	-1.258750000000E-01	1.090000000000E-01
	O18	O	-1.258750000000E-01	5.450000000000E-02	-2.517500000000E-01
	O19	O	1.288500000000E-01	-1.288500000000E-01	-3.009929164800E-17
	O20	O	0.000000000000E+00	1.288500000000E-01	-2.577000000000E-01
	O21	O	-1.288500000000E-01	-1.387778780781E-17	2.577000000000E-01
	O22	O	-1.288500000000E-01	1.288500000000E-01	-2.288025138780E-17
	O23	O	0.000000000000E+00	-1.288500000000E-01	2.577000000000E-01
	O24	O	1.288500000000E-01	1.387778780781E-17	-2.577000000000E-01
	Si25	Si	5.240000000000E-02	1.659000000000E-01	-1.213000000000E-01
	Si26	Si	-6.065000000000E-02	5.240000000000E-02	3.318000000000E-01
	Si27	Si	1.659000000000E-01	-6.065000000000E-02	1.048000000000E-01
	Si28	Si	-1.659000000000E-01	-5.240000000000E-02	1.213000000000E-01
	Si29	Si	-5.240000000000E-02	6.065000000000E-02	-3.318000000000E-01
	Si30	Si	6.065000000000E-02	-1.659000000000E-01	-1.048000000000E-01
	Si31	Si	-5.240000000000E-02	-1.659000000000E-01	1.213000000000E-01
	Si32	Si	6.065000000000E-02	-5.240000000000E-02	-3.318000000000E-01
	Si33	Si	-1.659000000000E-01	6.065000000000E-02	-1.048000000000E-01
	Si34	Si	1.659000000000E-01	5.240000000000E-02	-1.213000000000E-01
	Si35	Si	5.240000000000E-02	-6.065000000000E-02	3.318000000000E-01
	Si36	Si	-6.065000000000E-02	1.659000000000E-01	1.048000000000E-01
	O37	O	1.593500000000E-01	-4.876500000000E-01	2.470000000000E-02
	O38	O	7.170000000000E-02	4.283000000000E-01	-5.000000000000E-01
	O39	O	-4.283000000000E-01	-7.170000000000E-02	-5.000000000000E-01
	O40	O	-4.283000000000E-01	4.283000000000E-01	5.000000000000E-01
	O41	O	-3.406500000000E-01	1.235000000000E-02	2.470000000000E-02
	O42	O	2.500000000000E-01	-4.283000000000E-01	-1.434000000000E-01
	O43	O	-2.500000000000E-01	7.170000000000E-02	-1.434000000000E-01
	O44	O	-2.500000000000E-01	-4.283000000000E-01	-1.434000000000E-01
	O45	O	-3.406500000000E-01	-4.876500000000E-01	2.470000000000E-02
	O46	O	-7.170000000000E-02	-2.500000000000E-01	1.434000000000E-01
	O47	O	4.283000000000E-01	2.500000000000E-01	1.434000000000E-01
	O48	O	4.283000000000E-01	-2.500000000000E-01	1.434000000000E-01
	O49	O	-4.876500000000E-01	-3.406500000000E-01	2.470000000000E-02
	O50	O	1.258750000000E-01	4.455000000000E-01	2.517500000000E-01
	O51	O	-3.741250000000E-01	-5.450000000000E-02	2.517500000000E-01
	O52	O	-3.741250000000E-01	4.455000000000E-01	2.517500000000E-01
	O53	O	-1.593500000000E-01	4.876500000000E-01	-2.470000000000E-02
	O54	O	1.258750000000E-01	-3.741250000000E-01	-1.090000000000E-01
	O55	O	-3.741250000000E-01	1.258750000000E-01	-1.090000000000E-01
	O56	O	-3.741250000000E-01	-3.741250000000E-01	-1.090000000000E-01
	O57	O	3.406500000000E-01	-1.235000000000E-02	-2.470000000000E-02
	O58	O	-5.450000000000E-02	-3.741250000000E-01	2.517500000000E-01
	O59	O	4.455000000000E-01	1.258750000000E-01	2.517500000000E-01
	O60	O	4.455000000000E-01	-3.741250000000E-01	2.517500000000E-01
	O61	O	3.406500000000E-01	4.876500000000E-01	-2.470000000000E-02
	O62	O	5.450000000000E-02	3.741250000000E-01	-2.517500000000E-01
	O63	O	-4.455000000000E-01	-1.258750000000E-01	-2.517500000000E-01
	O64	O	-4.455000000000E-01	3.741250000000E-01	-2.517500000000E-01
	O65	O	1.235000000000E-02	-3.406500000000E-01	2.470000000000E-02
	O66	O	-1.258750000000E-01	3.741250000000E-01	1.090000000000E-01
	O67	O	3.741250000000E-01	-1.258750000000E-01	1.090000000000E-01
	O68	O	3.741250000000E-01	3.741250000000E-01	1.090000000000E-01
	O69	O	-1.235000000000E-02	4.876500000000E-01	-3.187000000000E-01
	O70	O	-1.258750000000E-01	-4.455000000000E-01	-2.517500000000E-01
	O71	O	3.741250000000E-01	5.450000000000E-02	-2.517500000000E-01
	O72	O	3.741250000000E-01	-4.455000000000E-01	-2.517500000000E-01
	O73	O	4.876500000000E-01	-1.235000000000E-02	-3.187000000000E-01
	O74	O	1.288500000000E-01	3.711500000000E-01	-1.665334536938E-16
	O75	O	-3.711500000000E-01	-1.288500000000E-01	5.551115123126E-17
	O76	O	-3.711500000000E-01	3.711500000000E-01	-1.052224214144E-16
	O77	O	4.876500000000E-01	4.876500000000E-01	-3.187000000000E-01
	O78	O	-5.551115123126E-17	-3.711500000000E-01	-2.577000000000E-01
	O79	O	-5.000000000000E-01	1.288500000000E-01	-2.577000000000E-01
	O80	O	5.000000000000E-01	-3.711500000000E-01	-2.577000000000E-01
	O81	O	1.235000000000E-02	-4.876500000000E-01	3.187000000000E-01
	O82	O	-1.288500000000E-01	5.000000000000E-01	2.577000000000E-01
	O83	O	3.711500000000E-01	-2.775557561563E-17	2.577000000000E-01
	O84	O	3.711500000000E-01	-5.000000000000E-01	2.577000000000E-01
	O85	O	-1.235000000000E-02	3.406500000000E-01	-2.470000000000E-02
	O86	O	-1.288500000000E-01	-3.711500000000E-01	-1.110223024625E-16
	O87	O	3.711500000000E-01	1.288500000000E-01	-5.551115123126E-17
	O88	O	3.711500000000E-01	-3.711500000000E-01	-9.071809879565E-17
	O89	O	4.876500000000E-01	-1.593500000000E-01	-2.470000000000E-02
	O90	O	2.775557561563E-17	3.711500000000E-01	2.577000000000E-01
	O91	O	5.000000000000E-01	-1.288500000000E-01	2.577000000000E-01
	O92	O	-5.000000000000E-01	3.711500000000E-01	2.577000000000E-01
	O93	O	4.876500000000E-01	3.406500000000E-01	-2.470000000000E-02
	O94	O	1.288500000000E-01	-5.000000000000E-01	-2.577000000000E-01
	O95	O	-3.711500000000E-01	2.775557561563E-17	-2.577000000000E-01
	O96	O	-3.711500000000E-01	5.000000000000E-01	-2.577000000000E-01
	O97	O	-4.876500000000E-01	1.235000000000E-02	3.187000000000E-01
	Si98	Si	5.240000000000E-02	-3.341000000000E-01	-1.213000000000E-01
	Si99	Si	-4.476000000000E-01	1.659000000000E-01	-1.213000000000E-01
	Si100	Si	-4.476000000000E-01	-3.341000000000E-01	-1.213000000000E-01
	O101	O	-7.170000000000E-02	-4.283000000000E-01	5.000000000000E-01
	Si102	Si	-6.065000000000E-02	-4.476000000000E-01	3.318000000000E-01
	Si103	Si	4.393500000000E-01	5.240000000000E-02	3.318000000000E-01
	Si104	Si	4.393500000000E-01	-4.476000000000E-01	3.318000000000E-01
	O105	O	4.283000000000E-01	7.170000000000E-02	5.000000000000E-01
	Si106	Si	1.659000000000E-01	4.393500000000E-01	1.048000000000E-01
	Si107	Si	-3.341000000000E-01	-6.065000000000E-02	1.048000000000E-01
	Si108	Si	-3.341000000000E-01	4.393500000000E-01	1.048000000000E-01
	O109	O	4.283000000000E-01	-4.283000000000E-01	5.000000000000E-01
	Si110	Si	-1.659000000000E-01	4.476000000000E-01	1.213000000000E-01
	Si111	Si	3.341000000000E-01	-5.240000000000E-02	1.213000000000E-01
	Si112	Si	3.341000000000E-01	4.476000000000E-01	1.213000000000E-01
	O113	O	-4.876500000000E-01	-4.876500000000E-01	3.187000000000E-01
	Si114	Si	-5.240000000000E-02	-4.393500000000E-01	-3.318000000000E-01
	Si115	Si	4.476000000000E-01	6.065000000000E-02	-3.318000000000E-01
	Si116	Si	4.476000000000E-01	-4.393500000000E-01	-3.318000000000E-01
	O117	O	2.500000000000E-01	4.283000000000E-01	1.434000000000E-01
	Si118	Si	6.065000000000E-02	3.341000000000E-01	-1.048000000000E-01
	Si119	Si	-4.393500000000E-01	-1.659000000000E-01	-1.048000000000E-01
	Si120	Si	-4.393500000000E-01	3.341000000000E-01	-1.048000000000E-01
	O121	O	-2.500000000000E-01	-7.170000000000E-02	1.434000000000E-01
	Si122	Si	-5.240000000000E-02	3.341000000000E-01	1.213000000000E-01
	Si123	Si	4.476000000000E-01	-1.659000000000E-01	1.213000000000E-01
	Si124	Si	4.476000000000E-01	3.341000000000E-01	1.213000000000E-01
	O125	O	-2.500000000000E-01	4.283000000000E-01	1.434000000000E-01
	Si126	Si	6.065000000000E-02	4.476000000000E-01	-3.318000000000E-01
	Si127	Si	-4.393500000000E-01	-5.240000000000E-02	-3.318000000000E-01
	Si128	Si	-4.393500000000E-01	4.476000000000E-01	-3.318000000000E-01
	O129	O	-4.876500000000E-01	1.593500000000E-01	2.470000000000E-02
	Si130	Si	-1.659000000000E-01	-4.393500000000E-01	-1.048000000000E-01
	Si131	Si	3.341000000000E-01	6.065000000000E-02	-1.048000000000E-01
	Si132	Si	3.341000000000E-01	-4.393500000000E-01	-1.048000000000E-01
	O133	O	7.170000000000E-02	-2.500000000000E-01	-1.434000000000E-01
	Si134	Si	1.659000000000E-01	-4.476000000000E-01	-1.213000000000E-01
	Si135	Si	-3.341000000000E-01	5.240000000000E-02	-1.213000000000E-01
	Si136	Si	-3.341000000000E-01	-4.476000000000E-01	-1.213000000000E-01
	O137	O	-4.283000000000E-01	2.500000000000E-01	-1.434000000000E-01
	Si138	Si	5.240000000000E-02	4.393500000000E-01	3.318000000000E-01
	Si139	Si	-4.476000000000E-01	-6.065000000000E-02	3.318000000000E-01
	Si140	Si	-4.476000000000E-01	4.393500000000E-01	3.318000000000E-01
	O141	O	-4.283000000000E-01	-2.500000000000E-01	-1.434000000000E-01
	Si142	Si	-6.065000000000E-02	-3.341000000000E-01	1.048000000000E-01
	Si143	Si	4.393500000000E-01	1.659000000000E-01	1.048000000000E-01
	Si144	Si	4.393500000000E-01	-3.341000000000E-01	1.048000000000E-01
