data CON
_chemical_name_common		'CON'
_cell_length_a		13.16625407
_cell_length_b		13.16625407
_cell_length_c		12.55300000
_cell_angle_alpha		107.576567
_cell_angle_beta		72.423433
_cell_angle_gamma		118.958369
_space group_name_H-M_alt		'P 1'
_space_group_IT_number		1

loop_
	_atom_site_label
	_atom_site_type_symbol
	_atom_site_fract_x
	_atom_site_fract_y
	_atom_site_fract_z
	O1	O	1.506000000000E-01	1.506000000000E-01	-5.000000000000E-01
	O2	O	-1.506000000000E-01	-1.506000000000E-01	-5.000000000000E-01
	O3	O	7.960000000000E-02	-7.960000000000E-02	4.485000000000E-01
	O4	O	-7.960000000000E-02	7.960000000000E-02	-4.485000000000E-01
	O5	O	3.014000000000E-01	6.220000000000E-02	3.823000000000E-01
	O6	O	6.220000000000E-02	3.014000000000E-01	-3.823000000000E-01
	O7	O	-3.014000000000E-01	-6.220000000000E-02	-3.823000000000E-01
	O8	O	-6.220000000000E-02	-3.014000000000E-01	3.823000000000E-01
	O9	O	2.187000000000E-01	4.950000000000E-02	-4.016000000000E-01
	O10	O	4.950000000000E-02	2.187000000000E-01	4.016000000000E-01
	O11	O	-2.187000000000E-01	-4.950000000000E-02	4.016000000000E-01
	O12	O	-4.950000000000E-02	-2.187000000000E-01	-4.016000000000E-01
	O13	O	3.511000000000E-01	-9.270000000000E-02	2.129000000000E-01
	O14	O	-9.270000000000E-02	3.511000000000E-01	-2.129000000000E-01
	O15	O	-3.511000000000E-01	9.270000000000E-02	-2.129000000000E-01
	O16	O	9.270000000000E-02	-3.511000000000E-01	2.129000000000E-01
	O17	O	4.944000000000E-01	1.334000000000E-01	2.277000000000E-01
	O18	O	1.334000000000E-01	4.944000000000E-01	-2.277000000000E-01
	O19	O	-4.944000000000E-01	-1.334000000000E-01	-2.277000000000E-01
	O20	O	-1.334000000000E-01	-4.944000000000E-01	2.277000000000E-01
	O21	O	2.867000000000E-01	5.130000000000E-02	1.745000000000E-01
	O22	O	5.130000000000E-02	2.867000000000E-01	-1.745000000000E-01
	O23	O	-2.867000000000E-01	-5.130000000000E-02	-1.745000000000E-01
	O24	O	-5.130000000000E-02	-2.867000000000E-01	1.745000000000E-01
	O25	O	3.044000000000E-01	6.900000000000E-02	-2.285000000000E-01
	O26	O	6.900000000000E-02	3.044000000000E-01	2.285000000000E-01
	O27	O	-3.044000000000E-01	-6.900000000000E-02	2.285000000000E-01
	O28	O	-6.900000000000E-02	-3.044000000000E-01	-2.285000000000E-01
	O29	O	1.390000000000E-01	1.386000000000E-01	-1.949000000000E-01
	O30	O	1.386000000000E-01	1.390000000000E-01	1.949000000000E-01
	O31	O	-1.390000000000E-01	-1.386000000000E-01	1.949000000000E-01
	O32	O	-1.386000000000E-01	-1.390000000000E-01	-1.949000000000E-01
	O33	O	8.780000000000E-02	-8.780000000000E-02	-2.505000000000E-01
	O34	O	-8.780000000000E-02	8.780000000000E-02	2.505000000000E-01
	O35	O	3.070000000000E-01	-3.070000000000E-01	9.410000000000E-02
	O36	O	-3.070000000000E-01	3.070000000000E-01	-9.410000000000E-02
	O37	O	4.139000000000E-01	-1.251000000000E-01	-9.700000000000E-03
	O38	O	-1.251000000000E-01	4.139000000000E-01	9.700000000000E-03
	O39	O	-4.139000000000E-01	1.251000000000E-01	9.700000000000E-03
	O40	O	1.251000000000E-01	-4.139000000000E-01	-9.700000000000E-03
	O41	O	-4.744000000000E-01	-1.530000000000E-01	1.132000000000E-01
	O42	O	-1.530000000000E-01	-4.744000000000E-01	-1.132000000000E-01
	O43	O	4.744000000000E-01	1.530000000000E-01	-1.132000000000E-01
	O44	O	1.530000000000E-01	4.744000000000E-01	1.132000000000E-01
	O45	O	2.928000000000E-01	-2.928000000000E-01	-1.610000000000E-01
	O46	O	-2.928000000000E-01	2.928000000000E-01	1.610000000000E-01
	O47	O	3.296000000000E-01	-7.360000000000E-02	-1.408000000000E-01
	O48	O	-7.360000000000E-02	3.296000000000E-01	1.408000000000E-01
	O49	O	-3.296000000000E-01	7.360000000000E-02	1.408000000000E-01
	O50	O	7.360000000000E-02	-3.296000000000E-01	-1.408000000000E-01
	O51	O	8.500000000000E-02	-8.500000000000E-02	1.035000000000E-01
	O52	O	-8.500000000000E-02	8.500000000000E-02	-1.035000000000E-01
	O53	O	2.528000000000E-01	8.140000000000E-02	-7.200000000000E-03
	O54	O	8.140000000000E-02	2.528000000000E-01	7.200000000000E-03
	O55	O	-2.528000000000E-01	-8.140000000000E-02	7.200000000000E-03
	O56	O	-8.140000000000E-02	-2.528000000000E-01	-7.200000000000E-03
	Si57	Si	1.874000000000E-01	4.560000000000E-02	4.825000000000E-01
	Si58	Si	4.560000000000E-02	1.874000000000E-01	-4.825000000000E-01
	Si59	Si	-1.874000000000E-01	-4.560000000000E-02	-4.825000000000E-01
	Si60	Si	-4.560000000000E-02	-1.874000000000E-01	4.825000000000E-01
	Si61	Si	3.581000000000E-01	3.850000000000E-02	2.496000000000E-01
	Si62	Si	3.850000000000E-02	3.581000000000E-01	-2.496000000000E-01
	Si63	Si	-3.581000000000E-01	-3.850000000000E-02	-2.496000000000E-01
	Si64	Si	-3.850000000000E-02	-3.581000000000E-01	2.496000000000E-01
	Si65	Si	1.874000000000E-01	4.240000000000E-02	-2.690000000000E-01
	Si66	Si	4.240000000000E-02	1.874000000000E-01	2.690000000000E-01
	Si67	Si	-1.874000000000E-01	-4.240000000000E-02	2.690000000000E-01
	Si68	Si	-4.240000000000E-02	-1.874000000000E-01	-2.690000000000E-01
	Si69	Si	3.993000000000E-01	-1.697000000000E-01	1.026000000000E-01
	Si70	Si	-1.697000000000E-01	3.993000000000E-01	-1.026000000000E-01
	Si71	Si	-3.993000000000E-01	1.697000000000E-01	-1.026000000000E-01
	Si72	Si	1.697000000000E-01	-3.993000000000E-01	1.026000000000E-01
	Si73	Si	3.854000000000E-01	-1.562000000000E-01	-1.347000000000E-01
	Si74	Si	-1.562000000000E-01	3.854000000000E-01	1.347000000000E-01
	Si75	Si	-3.854000000000E-01	1.562000000000E-01	1.347000000000E-01
	Si76	Si	1.562000000000E-01	-3.854000000000E-01	-1.347000000000E-01
	Si77	Si	1.903000000000E-01	4.650000000000E-02	1.166000000000E-01
	Si78	Si	4.650000000000E-02	1.903000000000E-01	-1.166000000000E-01
	Si79	Si	-1.903000000000E-01	-4.650000000000E-02	-1.166000000000E-01
	Si80	Si	-4.650000000000E-02	-1.903000000000E-01	1.166000000000E-01
	Si81	Si	3.405000000000E-01	5.750000000000E-02	-1.224000000000E-01
	Si82	Si	5.750000000000E-02	3.405000000000E-01	1.224000000000E-01
	Si83	Si	-3.405000000000E-01	-5.750000000000E-02	1.224000000000E-01
	Si84	Si	-5.750000000000E-02	-3.405000000000E-01	-1.224000000000E-01
