data CSV
_chemical_name_common		'CSV'
_cell_length_a		13.02702000
_cell_length_b		11.18216000
_cell_length_c		9.21893000
_cell_angle_alpha		92.350000
_cell_angle_beta		107.300000
_cell_angle_gamma		104.500000
_space group_name_H-M_alt		'P 1'
_space_group_IT_number		1

loop_
	_atom_site_label
	_atom_site_type_symbol
	_atom_site_fract_x
	_atom_site_fract_y
	_atom_site_fract_z
	Si1	Si	2.671700000000E-01	4.967900000000E-01	2.302600000000E-01
	Si2	Si	-2.671700000000E-01	-4.967900000000E-01	-2.302600000000E-01
	Si3	Si	2.727400000000E-01	-4.497900000000E-01	-9.466000000000E-02
	Si4	Si	-2.727400000000E-01	4.497900000000E-01	9.466000000000E-02
	Si5	Si	3.236600000000E-01	3.916000000000E-01	-3.232600000000E-01
	Si6	Si	-3.236600000000E-01	-3.916000000000E-01	3.232600000000E-01
	Si7	Si	1.172200000000E-01	4.264800000000E-01	4.190200000000E-01
	Si8	Si	-1.172200000000E-01	-4.264800000000E-01	-4.190200000000E-01
	Si9	Si	4.073400000000E-01	1.504500000000E-01	-2.617600000000E-01
	Si10	Si	-4.073400000000E-01	-1.504500000000E-01	2.617600000000E-01
	Si11	Si	3.344000000000E-01	-1.262900000000E-01	-3.470700000000E-01
	Si12	Si	-3.344000000000E-01	1.262900000000E-01	3.470700000000E-01
	Si13	Si	1.289800000000E-01	-3.530200000000E-01	-3.694400000000E-01
	Si14	Si	-1.289800000000E-01	3.530200000000E-01	3.694400000000E-01
	Si15	Si	4.760900000000E-01	3.892300000000E-01	3.159700000000E-01
	Si16	Si	-4.760900000000E-01	-3.892300000000E-01	-3.159700000000E-01
	Si17	Si	4.721000000000E-01	-2.319200000000E-01	-7.815000000000E-02
	Si18	Si	-4.721000000000E-01	2.319200000000E-01	7.815000000000E-02
	Si19	Si	4.185100000000E-01	-2.498200000000E-01	4.219700000000E-01
	Si20	Si	-4.185100000000E-01	2.498200000000E-01	-4.219700000000E-01
	O21	O	2.352200000000E-01	-4.992700000000E-01	4.830000000000E-02
	O22	O	-2.352200000000E-01	4.992700000000E-01	-4.830000000000E-02
	O23	O	3.581500000000E-01	4.204300000000E-01	2.885400000000E-01
	O24	O	-3.581500000000E-01	-4.204300000000E-01	-2.885400000000E-01
	O25	O	3.167900000000E-01	-3.638700000000E-01	3.188400000000E-01
	O26	O	-3.167900000000E-01	3.638700000000E-01	-3.188400000000E-01
	O27	O	1.548100000000E-01	4.294200000000E-01	2.675500000000E-01
	O28	O	-1.548100000000E-01	-4.294200000000E-01	-2.675500000000E-01
	O29	O	3.685100000000E-01	-3.195600000000E-01	-3.738000000000E-02
	O30	O	-3.685100000000E-01	3.195600000000E-01	3.738000000000E-02
	O31	O	1.687900000000E-01	-4.262000000000E-01	-2.254600000000E-01
	O32	O	-1.687900000000E-01	4.262000000000E-01	2.254600000000E-01
	O33	O	3.204600000000E-01	4.482900000000E-01	-1.617300000000E-01
	O34	O	-3.204600000000E-01	-4.482900000000E-01	1.617300000000E-01
	O35	O	3.440900000000E-01	2.557100000000E-01	-3.132300000000E-01
	O36	O	-3.440900000000E-01	-2.557100000000E-01	3.132300000000E-01
	O37	O	4.232000000000E-01	4.842700000000E-01	-3.670200000000E-01
	O38	O	-4.232000000000E-01	-4.842700000000E-01	3.670200000000E-01
	O39	O	2.044600000000E-01	3.778200000000E-01	-4.503000000000E-01
	O40	O	-2.044600000000E-01	-3.778200000000E-01	4.503000000000E-01
	O41	O	1.196500000000E-01	-4.346500000000E-01	4.767500000000E-01
	O42	O	-1.196500000000E-01	4.346500000000E-01	-4.767500000000E-01
	O43	O	-7.460000000000E-03	3.363300000000E-01	3.818200000000E-01
	O44	O	7.460000000000E-03	-3.363300000000E-01	-3.818200000000E-01
	O45	O	3.261400000000E-01	1.513000000000E-02	-3.417900000000E-01
	O46	O	-3.261400000000E-01	-1.513000000000E-02	3.417900000000E-01
	O47	O	-4.819800000000E-01	1.760400000000E-01	-3.129900000000E-01
	O48	O	4.819800000000E-01	-1.760400000000E-01	3.129900000000E-01
	O49	O	4.388700000000E-01	1.536600000000E-01	-7.868000000000E-02
	O50	O	-4.388700000000E-01	-1.536600000000E-01	7.868000000000E-02
	O51	O	4.293700000000E-01	-1.378100000000E-01	-1.940600000000E-01
	O52	O	-4.293700000000E-01	1.378100000000E-01	1.940600000000E-01
	O53	O	2.166000000000E-01	-2.190600000000E-01	-3.521800000000E-01
	O54	O	-2.166000000000E-01	2.190600000000E-01	3.521800000000E-01
	O55	O	3.683100000000E-01	-1.597700000000E-01	-4.949000000000E-01
	O56	O	-3.683100000000E-01	1.597700000000E-01	4.949000000000E-01
	O57	O	4.733000000000E-01	3.183600000000E-01	1.586600000000E-01
	O58	O	-4.733000000000E-01	-3.183600000000E-01	-1.586600000000E-01
	O59	O	4.945900000000E-01	3.010900000000E-01	4.497800000000E-01
	O60	O	-4.945900000000E-01	-3.010900000000E-01	-4.497800000000E-01
