data DAC
_chemical_name_common		'DAC'
_cell_length_a		10.02341309
_cell_length_b		10.02341309
_cell_length_c		20.75400000
_cell_angle_alpha		72.519601
_cell_angle_beta		107.480399
_cell_angle_gamma		135.800632
_space group_name_H-M_alt		'P 1'
_space_group_IT_number		1

loop_
	_atom_site_label
	_atom_site_type_symbol
	_atom_site_fract_x
	_atom_site_fract_y
	_atom_site_fract_z
	O1	O	3.125000000000E-01	3.610000000000E-02	-1.117500000000E-01
	O2	O	3.610000000000E-02	3.125000000000E-01	1.117500000000E-01
	O3	O	-3.125000000000E-01	-3.610000000000E-02	1.117500000000E-01
	O4	O	-3.610000000000E-02	-3.125000000000E-01	-1.117500000000E-01
	O5	O	5.000000000000E-01	6.516042065405E-18	0.000000000000E+00
	O6	O	3.086809911679E-17	-5.000000000000E-01	0.000000000000E+00
	O7	O	-4.767000000000E-01	-2.490000000000E-02	-1.179000000000E-01
	O8	O	-2.490000000000E-02	-4.767000000000E-01	1.179000000000E-01
	O9	O	4.767000000000E-01	2.490000000000E-02	1.179000000000E-01
	O10	O	2.490000000000E-02	4.767000000000E-01	-1.179000000000E-01
	O11	O	-3.095000000000E-01	3.095000000000E-01	-8.980000000000E-02
	O12	O	3.095000000000E-01	-3.095000000000E-01	8.980000000000E-02
	O13	O	-3.338000000000E-01	3.338000000000E-01	1.732500000000E-01
	O14	O	3.338000000000E-01	-3.338000000000E-01	-1.732500000000E-01
	O15	O	5.000000000000E-01	9.140153457993E-17	2.500000000000E-01
	O16	O	-3.528610973316E-17	5.000000000000E-01	2.500000000000E-01
	O17	O	2.885000000000E-01	5.990000000000E-02	1.650000000000E-01
	O18	O	5.990000000000E-02	2.885000000000E-01	-1.650000000000E-01
	O19	O	-2.885000000000E-01	-5.990000000000E-02	-1.650000000000E-01
	O20	O	-5.990000000000E-02	-2.885000000000E-01	1.650000000000E-01
	O21	O	9.600000000000E-03	-9.600000000000E-03	-1.611500000000E-01
	O22	O	-9.600000000000E-03	9.600000000000E-03	1.611500000000E-01
	O23	O	1.091000000000E-01	-1.091000000000E-01	2.730000000000E-01
	O24	O	-1.091000000000E-01	1.091000000000E-01	-2.730000000000E-01
	Si25	Si	-4.932000000000E-01	8.020000000000E-02	-7.980000000000E-02
	Si26	Si	8.020000000000E-02	-4.932000000000E-01	7.980000000000E-02
	Si27	Si	4.932000000000E-01	-8.020000000000E-02	7.980000000000E-02
	Si28	Si	-8.020000000000E-02	4.932000000000E-01	-7.980000000000E-02
	Si29	Si	4.832000000000E-01	1.044000000000E-01	1.766500000000E-01
	Si30	Si	1.044000000000E-01	4.832000000000E-01	-1.766500000000E-01
	Si31	Si	-4.832000000000E-01	-1.044000000000E-01	-1.766500000000E-01
	Si32	Si	-1.044000000000E-01	-4.832000000000E-01	1.766500000000E-01
	Si33	Si	9.870000000000E-02	-9.870000000000E-02	-1.530000000000E-01
	Si34	Si	-9.870000000000E-02	9.870000000000E-02	1.530000000000E-01
	Si35	Si	8.190000000000E-02	-8.190000000000E-02	1.910500000000E-01
	Si36	Si	-8.190000000000E-02	8.190000000000E-02	-1.910500000000E-01
	O37	O	5.000000000000E-01	9.337116184982E-18	5.000000000000E-01
	O38	O	-2.885000000000E-01	-5.990000000000E-02	3.350000000000E-01
	O39	O	2.490000000000E-02	4.767000000000E-01	3.821000000000E-01
	O40	O	-5.990000000000E-02	-2.885000000000E-01	-3.350000000000E-01
	O41	O	-3.125000000000E-01	-3.610000000000E-02	-3.882500000000E-01
	O42	O	9.600000000000E-03	-9.600000000000E-03	3.388500000000E-01
	O43	O	-3.095000000000E-01	3.095000000000E-01	4.102000000000E-01
	O44	O	-9.600000000000E-03	9.600000000000E-03	-3.388500000000E-01
	O45	O	1.306493091242E-16	5.000000000000E-01	5.000000000000E-01
	O46	O	1.091000000000E-01	-1.091000000000E-01	-2.270000000000E-01
	O47	O	3.095000000000E-01	-3.095000000000E-01	-4.102000000000E-01
	O48	O	-1.091000000000E-01	1.091000000000E-01	2.270000000000E-01
	O49	O	3.610000000000E-02	3.125000000000E-01	-3.882500000000E-01
	Si50	Si	-4.932000000000E-01	8.020000000000E-02	4.202000000000E-01
	O51	O	-3.338000000000E-01	3.338000000000E-01	-3.267500000000E-01
	Si52	Si	8.020000000000E-02	-4.932000000000E-01	-4.202000000000E-01
	O53	O	-4.767000000000E-01	-2.490000000000E-02	3.821000000000E-01
	Si54	Si	4.932000000000E-01	-8.020000000000E-02	-4.202000000000E-01
	O55	O	3.338000000000E-01	-3.338000000000E-01	3.267500000000E-01
	Si56	Si	-8.020000000000E-02	4.932000000000E-01	4.202000000000E-01
	O57	O	-3.610000000000E-02	-3.125000000000E-01	3.882500000000E-01
	Si58	Si	4.832000000000E-01	1.044000000000E-01	-3.233500000000E-01
	O59	O	5.000000000000E-01	1.688101841280E-16	-2.500000000000E-01
	Si60	Si	1.044000000000E-01	4.832000000000E-01	3.233500000000E-01
	O61	O	-2.490000000000E-02	-4.767000000000E-01	-3.821000000000E-01
	Si62	Si	-4.832000000000E-01	-1.044000000000E-01	3.233500000000E-01
	O63	O	-2.881004049738E-18	5.000000000000E-01	-2.500000000000E-01
	Si64	Si	-1.044000000000E-01	-4.832000000000E-01	-3.233500000000E-01
	O65	O	3.125000000000E-01	3.610000000000E-02	3.882500000000E-01
	Si66	Si	9.870000000000E-02	-9.870000000000E-02	3.470000000000E-01
	O67	O	2.885000000000E-01	5.990000000000E-02	-3.350000000000E-01
	Si68	Si	-9.870000000000E-02	9.870000000000E-02	-3.470000000000E-01
	O69	O	4.767000000000E-01	2.490000000000E-02	-3.821000000000E-01
	Si70	Si	8.190000000000E-02	-8.190000000000E-02	-3.089500000000E-01
	O71	O	5.990000000000E-02	2.885000000000E-01	3.350000000000E-01
	Si72	Si	-8.190000000000E-02	8.190000000000E-02	3.089500000000E-01
