data DDR
_chemical_name_common		'DDR'
_cell_length_a		15.74614089
_cell_length_b		15.74614089
_cell_length_c		15.74614089
_cell_angle_alpha		51.958274
_cell_angle_beta		51.958274
_cell_angle_gamma		51.958274
_space group_name_H-M_alt		'P 1'
_space_group_IT_number		1

loop_
	_atom_site_label
	_atom_site_type_symbol
	_atom_site_fract_x
	_atom_site_fract_y
	_atom_site_fract_z
	O1	O	-2.215000000000E-01	3.401000000000E-01	1.502000000000E-01
	O2	O	1.502000000000E-01	-2.215000000000E-01	3.401000000000E-01
	O3	O	3.401000000000E-01	1.502000000000E-01	-2.215000000000E-01
	O4	O	-3.401000000000E-01	2.215000000000E-01	-1.502000000000E-01
	O5	O	2.215000000000E-01	-1.502000000000E-01	-3.401000000000E-01
	O6	O	-1.502000000000E-01	-3.401000000000E-01	2.215000000000E-01
	O7	O	2.215000000000E-01	-3.401000000000E-01	-1.502000000000E-01
	O8	O	-1.502000000000E-01	2.215000000000E-01	-3.401000000000E-01
	O9	O	-3.401000000000E-01	-1.502000000000E-01	2.215000000000E-01
	O10	O	3.401000000000E-01	-2.215000000000E-01	1.502000000000E-01
	O11	O	-2.215000000000E-01	1.502000000000E-01	3.401000000000E-01
	O12	O	1.502000000000E-01	3.401000000000E-01	-2.215000000000E-01
	O13	O	-2.768000000000E-01	-4.662000000000E-01	-1.910000000000E-02
	O14	O	-1.910000000000E-02	-2.768000000000E-01	-4.662000000000E-01
	O15	O	-4.662000000000E-01	-1.910000000000E-02	-2.768000000000E-01
	O16	O	4.662000000000E-01	2.768000000000E-01	1.910000000000E-02
	O17	O	2.768000000000E-01	1.910000000000E-02	4.662000000000E-01
	O18	O	1.910000000000E-02	4.662000000000E-01	2.768000000000E-01
	O19	O	2.768000000000E-01	4.662000000000E-01	1.910000000000E-02
	O20	O	1.910000000000E-02	2.768000000000E-01	4.662000000000E-01
	O21	O	4.662000000000E-01	1.910000000000E-02	2.768000000000E-01
	O22	O	-4.662000000000E-01	-2.768000000000E-01	-1.910000000000E-02
	O23	O	-2.768000000000E-01	-1.910000000000E-02	-4.662000000000E-01
	O24	O	-1.910000000000E-02	-4.662000000000E-01	-2.768000000000E-01
	O25	O	-6.620000000000E-02	3.721000000000E-01	-6.620000000000E-02
	O26	O	-6.620000000000E-02	-6.620000000000E-02	3.721000000000E-01
	O27	O	3.721000000000E-01	-6.620000000000E-02	-6.620000000000E-02
	O28	O	-3.721000000000E-01	6.620000000000E-02	6.620000000000E-02
	O29	O	6.620000000000E-02	6.620000000000E-02	-3.721000000000E-01
	O30	O	6.620000000000E-02	-3.721000000000E-01	6.620000000000E-02
	O31	O	-2.467000000000E-01	3.395000000000E-01	2.000000000000E-04
	O32	O	2.000000000000E-04	-2.467000000000E-01	3.395000000000E-01
	O33	O	3.395000000000E-01	2.000000000000E-04	-2.467000000000E-01
	O34	O	-3.395000000000E-01	2.467000000000E-01	-2.000000000000E-04
	O35	O	2.467000000000E-01	-1.999999999999E-04	-3.395000000000E-01
	O36	O	-2.000000000000E-04	-3.395000000000E-01	2.467000000000E-01
	O37	O	2.467000000000E-01	-3.395000000000E-01	-1.999999999999E-04
	O38	O	-2.000000000000E-04	2.467000000000E-01	-3.395000000000E-01
	O39	O	-3.395000000000E-01	-2.000000000000E-04	2.467000000000E-01
	O40	O	3.395000000000E-01	-2.467000000000E-01	2.000000000000E-04
	O41	O	-2.467000000000E-01	1.999999999999E-04	3.395000000000E-01
	O42	O	2.000000000000E-04	3.395000000000E-01	-2.467000000000E-01
	O43	O	2.950500000000E-01	-1.536000000000E-01	2.950500000000E-01
	O44	O	2.950500000000E-01	2.950500000000E-01	-1.536000000000E-01
	O45	O	-1.536000000000E-01	2.950500000000E-01	2.950500000000E-01
	O46	O	1.536000000000E-01	-2.950500000000E-01	-2.950500000000E-01
	O47	O	-2.950500000000E-01	-2.950500000000E-01	1.536000000000E-01
	O48	O	-2.950500000000E-01	1.536000000000E-01	-2.950500000000E-01
	O49	O	1.679000000000E-01	-2.350000000000E-02	1.679000000000E-01
	O50	O	1.679000000000E-01	1.679000000000E-01	-2.350000000000E-02
	O51	O	-2.350000000000E-02	1.679000000000E-01	1.679000000000E-01
	O52	O	2.350000000000E-02	-1.679000000000E-01	-1.679000000000E-01
	O53	O	-1.679000000000E-01	-1.679000000000E-01	2.350000000000E-02
	O54	O	-1.679000000000E-01	2.350000000000E-02	-1.679000000000E-01
	O55	O	3.821500000000E-01	-1.394000000000E-01	3.821500000000E-01
	O56	O	3.821500000000E-01	3.821500000000E-01	-1.394000000000E-01
	O57	O	-1.394000000000E-01	3.821500000000E-01	3.821500000000E-01
	O58	O	1.394000000000E-01	-3.821500000000E-01	-3.821500000000E-01
	O59	O	-3.821500000000E-01	-3.821500000000E-01	1.394000000000E-01
	O60	O	-3.821500000000E-01	1.394000000000E-01	-3.821500000000E-01
	O61	O	-3.089500000000E-01	3.089500000000E-01	5.000000000000E-01
	O62	O	5.000000000000E-01	-3.089500000000E-01	3.089500000000E-01
	O63	O	3.089500000000E-01	-5.000000000000E-01	-3.089500000000E-01
	O64	O	3.089500000000E-01	-3.089500000000E-01	-5.000000000000E-01
	O65	O	5.000000000000E-01	3.089500000000E-01	-3.089500000000E-01
	O66	O	-3.089500000000E-01	-5.000000000000E-01	3.089500000000E-01
	O67	O	2.718500000000E-01	8.060000000000E-02	2.718500000000E-01
	O68	O	2.718500000000E-01	2.718500000000E-01	8.060000000000E-02
	O69	O	8.060000000000E-02	2.718500000000E-01	2.718500000000E-01
	O70	O	-8.060000000000E-02	-2.718500000000E-01	-2.718500000000E-01
	O71	O	-2.718500000000E-01	-2.718500000000E-01	-8.060000000000E-02
	O72	O	-2.718500000000E-01	-8.060000000000E-02	-2.718500000000E-01
	O73	O	1.146000000000E-01	-2.019000000000E-01	1.146000000000E-01
	O74	O	1.146000000000E-01	1.146000000000E-01	-2.019000000000E-01
	O75	O	-2.019000000000E-01	1.146000000000E-01	1.146000000000E-01
	O76	O	2.019000000000E-01	-1.146000000000E-01	-1.146000000000E-01
	O77	O	-1.146000000000E-01	-1.146000000000E-01	2.019000000000E-01
	O78	O	-1.146000000000E-01	2.019000000000E-01	-1.146000000000E-01
	O79	O	1.561000000000E-01	1.561000000000E-01	1.561000000000E-01
	O80	O	-1.561000000000E-01	-1.561000000000E-01	-1.561000000000E-01
	Si81	Si	-2.021000000000E-01	3.956000000000E-01	1.590000000000E-02
	Si82	Si	1.590000000000E-02	-2.021000000000E-01	3.956000000000E-01
	Si83	Si	3.956000000000E-01	1.590000000000E-02	-2.021000000000E-01
	Si84	Si	-3.956000000000E-01	2.021000000000E-01	-1.590000000000E-02
	Si85	Si	2.021000000000E-01	-1.590000000000E-02	-3.956000000000E-01
	Si86	Si	-1.590000000000E-02	-3.956000000000E-01	2.021000000000E-01
	Si87	Si	2.021000000000E-01	-3.956000000000E-01	-1.590000000000E-02
	Si88	Si	-1.590000000000E-02	2.021000000000E-01	-3.956000000000E-01
	Si89	Si	-3.956000000000E-01	-1.590000000000E-02	2.021000000000E-01
	Si90	Si	3.956000000000E-01	-2.021000000000E-01	1.590000000000E-02
	Si91	Si	-2.021000000000E-01	1.590000000000E-02	3.956000000000E-01
	Si92	Si	1.590000000000E-02	3.956000000000E-01	-2.021000000000E-01
	Si93	Si	2.384000000000E-01	-1.543000000000E-01	2.384000000000E-01
	Si94	Si	2.384000000000E-01	2.384000000000E-01	-1.543000000000E-01
	Si95	Si	-1.543000000000E-01	2.384000000000E-01	2.384000000000E-01
	Si96	Si	1.543000000000E-01	-2.384000000000E-01	-2.384000000000E-01
	Si97	Si	-2.384000000000E-01	-2.384000000000E-01	1.543000000000E-01
	Si98	Si	-2.384000000000E-01	1.543000000000E-01	-2.384000000000E-01
	Si99	Si	3.717500000000E-01	-2.281000000000E-01	3.717500000000E-01
	Si100	Si	3.717500000000E-01	3.717500000000E-01	-2.281000000000E-01
	Si101	Si	-2.281000000000E-01	3.717500000000E-01	3.717500000000E-01
	Si102	Si	2.281000000000E-01	-3.717500000000E-01	-3.717500000000E-01
	Si103	Si	-3.717500000000E-01	-3.717500000000E-01	2.281000000000E-01
	Si104	Si	-3.717500000000E-01	2.281000000000E-01	-3.717500000000E-01
	Si105	Si	3.496000000000E-01	-6.500000000000E-03	3.496000000000E-01
	Si106	Si	3.496000000000E-01	3.496000000000E-01	-6.500000000000E-03
	Si107	Si	-6.500000000000E-03	3.496000000000E-01	3.496000000000E-01
	Si108	Si	6.500000000000E-03	-3.496000000000E-01	-3.496000000000E-01
	Si109	Si	-3.496000000000E-01	-3.496000000000E-01	6.500000000000E-03
	Si110	Si	-3.496000000000E-01	6.500000000000E-03	-3.496000000000E-01
	Si111	Si	2.256000000000E-01	-2.256000000000E-01	-4.316122693908E-17
	Si112	Si	-3.120449879609E-17	2.256000000000E-01	-2.256000000000E-01
	Si113	Si	-2.256000000000E-01	0.000000000000E+00	2.256000000000E-01
	Si114	Si	-2.256000000000E-01	2.256000000000E-01	0.000000000000E+00
	Si115	Si	3.120449879609E-17	-2.256000000000E-01	2.256000000000E-01
	Si116	Si	2.256000000000E-01	0.000000000000E+00	-2.256000000000E-01
	Si117	Si	1.956000000000E-01	1.956000000000E-01	1.956000000000E-01
	Si118	Si	-1.956000000000E-01	-1.956000000000E-01	-1.956000000000E-01
	Si119	Si	1.166000000000E-01	1.166000000000E-01	1.166000000000E-01
	Si120	Si	-1.166000000000E-01	-1.166000000000E-01	-1.166000000000E-01
