data DOH
_chemical_name_common		'DOH'
_cell_length_a		14.19000000
_cell_length_b		14.19000000
_cell_length_c		11.49900000
_cell_angle_alpha		90.000000
_cell_angle_beta		90.000000
_cell_angle_gamma		120.000000
_space group_name_H-M_alt		'P 1'
_space_group_IT_number		1

loop_
	_atom_site_label
	_atom_site_type_symbol
	_atom_site_fract_x
	_atom_site_fract_y
	_atom_site_fract_z
	O1	O	3.952000000000E-01	2.893000000000E-01	3.035000000000E-01
	O2	O	-3.952000000000E-01	-2.893000000000E-01	3.035000000000E-01
	O3	O	-2.893000000000E-01	1.059000000000E-01	3.035000000000E-01
	O4	O	-1.059000000000E-01	-3.952000000000E-01	3.035000000000E-01
	O5	O	1.059000000000E-01	3.952000000000E-01	3.035000000000E-01
	O6	O	2.893000000000E-01	-1.059000000000E-01	3.035000000000E-01
	O7	O	1.059000000000E-01	-2.893000000000E-01	-3.035000000000E-01
	O8	O	-3.952000000000E-01	-1.059000000000E-01	-3.035000000000E-01
	O9	O	2.893000000000E-01	3.952000000000E-01	-3.035000000000E-01
	O10	O	-2.893000000000E-01	-3.952000000000E-01	-3.035000000000E-01
	O11	O	3.952000000000E-01	1.059000000000E-01	-3.035000000000E-01
	O12	O	-1.059000000000E-01	2.893000000000E-01	-3.035000000000E-01
	O13	O	-3.952000000000E-01	-2.893000000000E-01	-3.035000000000E-01
	O14	O	3.952000000000E-01	2.893000000000E-01	-3.035000000000E-01
	O15	O	2.893000000000E-01	-1.059000000000E-01	-3.035000000000E-01
	O16	O	1.059000000000E-01	3.952000000000E-01	-3.035000000000E-01
	O17	O	-1.059000000000E-01	-3.952000000000E-01	-3.035000000000E-01
	O18	O	-2.893000000000E-01	1.059000000000E-01	-3.035000000000E-01
	O19	O	-1.059000000000E-01	2.893000000000E-01	3.035000000000E-01
	O20	O	3.952000000000E-01	1.059000000000E-01	3.035000000000E-01
	O21	O	-2.893000000000E-01	-3.952000000000E-01	3.035000000000E-01
	O22	O	2.893000000000E-01	3.952000000000E-01	3.035000000000E-01
	O23	O	-3.952000000000E-01	-1.059000000000E-01	3.035000000000E-01
	O24	O	1.059000000000E-01	-2.893000000000E-01	3.035000000000E-01
	O25	O	-1.686000000000E-01	-3.372000000000E-01	1.140000000000E-01
	O26	O	1.686000000000E-01	3.372000000000E-01	1.140000000000E-01
	O27	O	3.372000000000E-01	1.686000000000E-01	1.140000000000E-01
	O28	O	-1.686000000000E-01	1.686000000000E-01	1.140000000000E-01
	O29	O	1.686000000000E-01	-1.686000000000E-01	1.140000000000E-01
	O30	O	-3.372000000000E-01	-1.686000000000E-01	1.140000000000E-01
	O31	O	1.686000000000E-01	3.372000000000E-01	-1.140000000000E-01
	O32	O	1.686000000000E-01	-1.686000000000E-01	-1.140000000000E-01
	O33	O	-3.372000000000E-01	-1.686000000000E-01	-1.140000000000E-01
	O34	O	3.372000000000E-01	1.686000000000E-01	-1.140000000000E-01
	O35	O	-1.686000000000E-01	1.686000000000E-01	-1.140000000000E-01
	O36	O	-1.686000000000E-01	-3.372000000000E-01	-1.140000000000E-01
	O37	O	-2.713500000000E-01	4.573000000000E-01	1.849000000000E-01
	O38	O	2.713500000000E-01	-4.573000000000E-01	1.849000000000E-01
	O39	O	-4.573000000000E-01	2.713500000000E-01	1.849000000000E-01
	O40	O	-2.713500000000E-01	2.713500000000E-01	1.849000000000E-01
	O41	O	2.713500000000E-01	-2.713500000000E-01	1.849000000000E-01
	O42	O	4.573000000000E-01	-2.713500000000E-01	1.849000000000E-01
	O43	O	2.713500000000E-01	-4.573000000000E-01	-1.849000000000E-01
	O44	O	2.713500000000E-01	-2.713500000000E-01	-1.849000000000E-01
	O45	O	4.573000000000E-01	-2.713500000000E-01	-1.849000000000E-01
	O46	O	-4.573000000000E-01	2.713500000000E-01	-1.849000000000E-01
	O47	O	-2.713500000000E-01	2.713500000000E-01	-1.849000000000E-01
	O48	O	-2.713500000000E-01	4.573000000000E-01	-1.849000000000E-01
	O49	O	3.659000000000E-01	-5.551115123126E-17	5.000000000000E-01
	O50	O	-3.659000000000E-01	-5.551115123126E-17	5.000000000000E-01
	O51	O	0.000000000000E+00	3.659000000000E-01	5.000000000000E-01
	O52	O	-3.659000000000E-01	-3.659000000000E-01	5.000000000000E-01
	O53	O	3.659000000000E-01	3.659000000000E-01	5.000000000000E-01
	O54	O	0.000000000000E+00	-3.659000000000E-01	5.000000000000E-01
	O55	O	-5.000000000000E-01	2.775557561563E-17	3.414000000000E-01
	O56	O	-7.227484844289E-17	5.000000000000E-01	3.414000000000E-01
	O57	O	-5.000000000000E-01	-5.000000000000E-01	3.414000000000E-01
	O58	O	-5.000000000000E-01	-1.387778780781E-16	-3.414000000000E-01
	O59	O	-5.000000000000E-01	-5.000000000000E-01	-3.414000000000E-01
	O60	O	7.227484844289E-17	5.000000000000E-01	-3.414000000000E-01
	O61	O	1.854000000000E-01	-1.387778780781E-17	0.000000000000E+00
	O62	O	-1.854000000000E-01	0.000000000000E+00	0.000000000000E+00
	O63	O	1.806871211072E-17	1.854000000000E-01	0.000000000000E+00
	O64	O	-1.854000000000E-01	-1.854000000000E-01	0.000000000000E+00
	O65	O	1.854000000000E-01	1.854000000000E-01	0.000000000000E+00
	O66	O	-1.806871211072E-17	-1.854000000000E-01	0.000000000000E+00
	O67	O	3.333333333333E-01	-3.333333333333E-01	0.000000000000E+00
	O68	O	-3.333333333333E-01	3.333333333333E-01	0.000000000000E+00
	Si69	Si	-2.086500000000E-01	-4.173000000000E-01	2.246000000000E-01
	Si70	Si	2.086500000000E-01	4.173000000000E-01	2.246000000000E-01
	Si71	Si	4.173000000000E-01	2.086500000000E-01	2.246000000000E-01
	Si72	Si	-2.086500000000E-01	2.086500000000E-01	2.246000000000E-01
	Si73	Si	2.086500000000E-01	-2.086500000000E-01	2.246000000000E-01
	Si74	Si	-4.173000000000E-01	-2.086500000000E-01	2.246000000000E-01
	Si75	Si	2.086500000000E-01	4.173000000000E-01	-2.246000000000E-01
	Si76	Si	2.086500000000E-01	-2.086500000000E-01	-2.246000000000E-01
	Si77	Si	-4.173000000000E-01	-2.086500000000E-01	-2.246000000000E-01
	Si78	Si	4.173000000000E-01	2.086500000000E-01	-2.246000000000E-01
	Si79	Si	-2.086500000000E-01	2.086500000000E-01	-2.246000000000E-01
	Si80	Si	-2.086500000000E-01	-4.173000000000E-01	-2.246000000000E-01
	Si81	Si	3.881000000000E-01	8.326672684689E-17	3.629000000000E-01
	Si82	Si	-3.881000000000E-01	0.000000000000E+00	3.629000000000E-01
	Si83	Si	3.613742422144E-17	3.881000000000E-01	3.629000000000E-01
	Si84	Si	-3.881000000000E-01	-3.881000000000E-01	3.629000000000E-01
	Si85	Si	3.881000000000E-01	3.881000000000E-01	3.629000000000E-01
	Si86	Si	-3.613742422144E-17	-3.881000000000E-01	3.629000000000E-01
	Si87	Si	3.881000000000E-01	0.000000000000E+00	-3.629000000000E-01
	Si88	Si	-3.881000000000E-01	-3.881000000000E-01	-3.629000000000E-01
	Si89	Si	-3.613742422144E-17	3.881000000000E-01	-3.629000000000E-01
	Si90	Si	3.613742422144E-17	-3.881000000000E-01	-3.629000000000E-01
	Si91	Si	3.881000000000E-01	3.881000000000E-01	-3.629000000000E-01
	Si92	Si	-3.881000000000E-01	0.000000000000E+00	-3.629000000000E-01
	Si93	Si	-1.304500000000E-01	-2.609000000000E-01	0.000000000000E+00
	Si94	Si	1.304500000000E-01	2.609000000000E-01	0.000000000000E+00
	Si95	Si	2.609000000000E-01	1.304500000000E-01	0.000000000000E+00
	Si96	Si	-1.304500000000E-01	1.304500000000E-01	0.000000000000E+00
	Si97	Si	1.304500000000E-01	-1.304500000000E-01	0.000000000000E+00
	Si98	Si	-2.609000000000E-01	-1.304500000000E-01	0.000000000000E+00
	Si99	Si	3.333333333333E-01	-3.333333333333E-01	1.398000000000E-01
	Si100	Si	-3.333333333333E-01	3.333333333333E-01	1.398000000000E-01
	Si101	Si	-3.333333333333E-01	3.333333333333E-01	-1.398000000000E-01
	Si102	Si	3.333333333333E-01	-3.333333333333E-01	-1.398000000000E-01
