data DON
_chemical_name_common		'DON'
_cell_length_a		15.02294349
_cell_length_b		15.02294349
_cell_length_c		8.46900000
_cell_angle_alpha		90.000000
_cell_angle_beta		90.000000
_cell_angle_gamma		77.909292
_space group_name_H-M_alt		'P 1'
_space_group_IT_number		1

loop_
	_atom_site_label
	_atom_site_type_symbol
	_atom_site_fract_x
	_atom_site_fract_y
	_atom_site_fract_z
	O1	O	-1.867000000000E-01	-1.867000000000E-01	4.506000000000E-01
	O2	O	1.867000000000E-01	1.867000000000E-01	-4.940000000000E-02
	O3	O	1.867000000000E-01	1.867000000000E-01	-4.506000000000E-01
	O4	O	-1.867000000000E-01	-1.867000000000E-01	4.940000000000E-02
	O5	O	-2.087000000000E-01	-3.479000000000E-01	-4.590000000000E-01
	O6	O	2.087000000000E-01	3.479000000000E-01	4.100000000000E-02
	O7	O	3.479000000000E-01	2.087000000000E-01	4.590000000000E-01
	O8	O	-3.479000000000E-01	-2.087000000000E-01	-4.100000000000E-02
	O9	O	2.087000000000E-01	3.479000000000E-01	4.590000000000E-01
	O10	O	-2.087000000000E-01	-3.479000000000E-01	-4.100000000000E-02
	O11	O	-3.479000000000E-01	-2.087000000000E-01	-4.590000000000E-01
	O12	O	3.479000000000E-01	2.087000000000E-01	4.100000000000E-02
	O13	O	-2.171000000000E-01	-2.171000000000E-01	-2.500000000000E-01
	O14	O	2.171000000000E-01	2.171000000000E-01	2.500000000000E-01
	O15	O	1.621000000000E-01	2.310000000000E-02	4.815000000000E-01
	O16	O	-1.621000000000E-01	-2.310000000000E-02	-1.850000000000E-02
	O17	O	-2.310000000000E-02	-1.621000000000E-01	-4.815000000000E-01
	O18	O	2.310000000000E-02	1.621000000000E-01	1.850000000000E-02
	O19	O	-1.621000000000E-01	-2.310000000000E-02	-4.815000000000E-01
	O20	O	1.621000000000E-01	2.310000000000E-02	1.850000000000E-02
	O21	O	2.310000000000E-02	1.621000000000E-01	4.815000000000E-01
	O22	O	-2.310000000000E-02	-1.621000000000E-01	-1.850000000000E-02
	O23	O	3.083000000000E-01	-1.057000000000E-01	-4.781000000000E-01
	O24	O	-3.083000000000E-01	1.057000000000E-01	2.190000000000E-02
	O25	O	1.057000000000E-01	-3.083000000000E-01	4.781000000000E-01
	O26	O	-1.057000000000E-01	3.083000000000E-01	-2.190000000000E-02
	O27	O	-3.083000000000E-01	1.057000000000E-01	4.781000000000E-01
	O28	O	3.083000000000E-01	-1.057000000000E-01	-2.190000000000E-02
	O29	O	-1.057000000000E-01	3.083000000000E-01	-4.781000000000E-01
	O30	O	1.057000000000E-01	-3.083000000000E-01	2.190000000000E-02
	O31	O	1.479000000000E-01	-1.479000000000E-01	-5.000000000000E-01
	O32	O	-1.479000000000E-01	1.479000000000E-01	-4.936290942527E-17
	O33	O	-1.479000000000E-01	1.479000000000E-01	-5.000000000000E-01
	O34	O	1.479000000000E-01	-1.479000000000E-01	0.000000000000E+00
	O35	O	2.228000000000E-01	-9.020000000000E-02	2.500000000000E-01
	O36	O	-2.228000000000E-01	9.020000000000E-02	-2.500000000000E-01
	O37	O	9.020000000000E-02	-2.228000000000E-01	-2.500000000000E-01
	O38	O	-9.020000000000E-02	2.228000000000E-01	2.500000000000E-01
	O39	O	-3.863000000000E-01	-1.543000000000E-01	2.500000000000E-01
	O40	O	3.863000000000E-01	1.543000000000E-01	-2.500000000000E-01
	O41	O	1.543000000000E-01	3.863000000000E-01	-2.500000000000E-01
	O42	O	-1.543000000000E-01	-3.863000000000E-01	2.500000000000E-01
	O43	O	-3.886000000000E-01	-3.400000000000E-02	4.761000000000E-01
	O44	O	3.886000000000E-01	3.400000000000E-02	-2.390000000000E-02
	O45	O	3.400000000000E-02	3.886000000000E-01	-4.761000000000E-01
	O46	O	-3.400000000000E-02	-3.886000000000E-01	2.390000000000E-02
	O47	O	3.886000000000E-01	3.400000000000E-02	-4.761000000000E-01
	O48	O	-3.886000000000E-01	-3.400000000000E-02	2.390000000000E-02
	O49	O	-3.400000000000E-02	-3.886000000000E-01	4.761000000000E-01
	O50	O	3.400000000000E-02	3.886000000000E-01	-2.390000000000E-02
	O51	O	4.839000000000E-01	-1.301000000000E-01	4.639000000000E-01
	O52	O	-4.839000000000E-01	1.301000000000E-01	-3.610000000000E-02
	O53	O	1.301000000000E-01	-4.839000000000E-01	-4.639000000000E-01
	O54	O	-1.301000000000E-01	4.839000000000E-01	3.610000000000E-02
	O55	O	-4.839000000000E-01	1.301000000000E-01	-4.639000000000E-01
	O56	O	4.839000000000E-01	-1.301000000000E-01	3.610000000000E-02
	O57	O	-1.301000000000E-01	4.839000000000E-01	4.639000000000E-01
	O58	O	1.301000000000E-01	-4.839000000000E-01	-3.610000000000E-02
	O59	O	4.224000000000E-01	-8.860000000000E-02	-2.500000000000E-01
	O60	O	-4.224000000000E-01	8.860000000000E-02	2.500000000000E-01
	O61	O	8.860000000000E-02	-4.224000000000E-01	2.500000000000E-01
	O62	O	-8.860000000000E-02	4.224000000000E-01	-2.500000000000E-01
	O63	O	-1.006000000000E-01	-1.006000000000E-01	2.500000000000E-01
	O64	O	1.006000000000E-01	1.006000000000E-01	-2.500000000000E-01
	Si65	Si	-4.101000000000E-01	-1.317000000000E-01	4.328000000000E-01
	Si66	Si	4.101000000000E-01	1.317000000000E-01	-6.720000000000E-02
	Si67	Si	1.317000000000E-01	4.101000000000E-01	-4.328000000000E-01
	Si68	Si	-1.317000000000E-01	-4.101000000000E-01	6.720000000000E-02
	Si69	Si	4.101000000000E-01	1.317000000000E-01	-4.328000000000E-01
	Si70	Si	-4.101000000000E-01	-1.317000000000E-01	6.720000000000E-02
	Si71	Si	-1.317000000000E-01	-4.101000000000E-01	4.328000000000E-01
	Si72	Si	1.317000000000E-01	4.101000000000E-01	-6.720000000000E-02
	Si73	Si	4.005000000000E-01	-7.250000000000E-02	-4.350000000000E-01
	Si74	Si	-4.005000000000E-01	7.250000000000E-02	6.500000000000E-02
	Si75	Si	7.250000000000E-02	-4.005000000000E-01	4.350000000000E-01
	Si76	Si	-7.250000000000E-02	4.005000000000E-01	-6.500000000000E-02
	Si77	Si	-4.005000000000E-01	7.250000000000E-02	4.350000000000E-01
	Si78	Si	4.005000000000E-01	-7.250000000000E-02	-6.500000000000E-02
	Si79	Si	-7.250000000000E-02	4.005000000000E-01	-4.350000000000E-01
	Si80	Si	7.250000000000E-02	-4.005000000000E-01	6.500000000000E-02
	Si81	Si	2.101000000000E-01	-8.010000000000E-02	4.381000000000E-01
	Si82	Si	-2.101000000000E-01	8.010000000000E-02	-6.190000000000E-02
	Si83	Si	8.010000000000E-02	-2.101000000000E-01	-4.381000000000E-01
	Si84	Si	-8.010000000000E-02	2.101000000000E-01	6.190000000000E-02
	Si85	Si	-2.101000000000E-01	8.010000000000E-02	-4.381000000000E-01
	Si86	Si	2.101000000000E-01	-8.010000000000E-02	6.190000000000E-02
	Si87	Si	-8.010000000000E-02	2.101000000000E-01	4.381000000000E-01
	Si88	Si	8.010000000000E-02	-2.101000000000E-01	-6.190000000000E-02
	Si89	Si	-2.401000000000E-01	-2.401000000000E-01	-4.293000000000E-01
	Si90	Si	2.401000000000E-01	2.401000000000E-01	7.070000000000E-02
	Si91	Si	2.401000000000E-01	2.401000000000E-01	4.293000000000E-01
	Si92	Si	-2.401000000000E-01	-2.401000000000E-01	-7.070000000000E-02
	Si93	Si	-1.180000000000E-01	-1.180000000000E-01	4.338000000000E-01
	Si94	Si	1.180000000000E-01	1.180000000000E-01	-6.620000000000E-02
	Si95	Si	1.180000000000E-01	1.180000000000E-01	-4.338000000000E-01
	Si96	Si	-1.180000000000E-01	-1.180000000000E-01	6.620000000000E-02
