data EAB
_chemical_name_common		'EAB'
_cell_length_a		13.17800000
_cell_length_b		13.17800000
_cell_length_c		15.00500000
_cell_angle_alpha		90.000000
_cell_angle_beta		90.000000
_cell_angle_gamma		120.000000
_space group_name_H-M_alt		'P 1'
_space_group_IT_number		1

loop_
	_atom_site_label
	_atom_site_type_symbol
	_atom_site_fract_x
	_atom_site_fract_y
	_atom_site_fract_z
	O1	O	3.217000000000E-01	2.380000000000E-02	8.570000000000E-02
	O2	O	-3.217000000000E-01	-2.380000000000E-02	-4.143000000000E-01
	O3	O	-2.380000000000E-02	2.979000000000E-01	8.570000000000E-02
	O4	O	-2.979000000000E-01	-3.217000000000E-01	8.570000000000E-02
	O5	O	2.979000000000E-01	3.217000000000E-01	-4.143000000000E-01
	O6	O	2.380000000000E-02	-2.979000000000E-01	-4.143000000000E-01
	O7	O	2.979000000000E-01	-2.380000000000E-02	-8.570000000000E-02
	O8	O	-3.217000000000E-01	-2.979000000000E-01	-8.570000000000E-02
	O9	O	2.380000000000E-02	3.217000000000E-01	-8.570000000000E-02
	O10	O	-2.380000000000E-02	-3.217000000000E-01	4.143000000000E-01
	O11	O	3.217000000000E-01	2.979000000000E-01	4.143000000000E-01
	O12	O	-2.979000000000E-01	2.380000000000E-02	4.143000000000E-01
	O13	O	-3.217000000000E-01	-2.380000000000E-02	-8.570000000000E-02
	O14	O	3.217000000000E-01	2.380000000000E-02	4.143000000000E-01
	O15	O	2.380000000000E-02	-2.979000000000E-01	-8.570000000000E-02
	O16	O	2.979000000000E-01	3.217000000000E-01	-8.570000000000E-02
	O17	O	-2.979000000000E-01	-3.217000000000E-01	4.143000000000E-01
	O18	O	-2.380000000000E-02	2.979000000000E-01	4.143000000000E-01
	O19	O	-2.979000000000E-01	2.380000000000E-02	8.570000000000E-02
	O20	O	3.217000000000E-01	2.979000000000E-01	8.570000000000E-02
	O21	O	-2.380000000000E-02	-3.217000000000E-01	8.570000000000E-02
	O22	O	2.380000000000E-02	3.217000000000E-01	-4.143000000000E-01
	O23	O	-3.217000000000E-01	-2.979000000000E-01	-4.143000000000E-01
	O24	O	2.979000000000E-01	-2.380000000000E-02	-4.143000000000E-01
	O25	O	-2.377000000000E-01	-4.754000000000E-01	1.362000000000E-01
	O26	O	2.377000000000E-01	4.754000000000E-01	-3.638000000000E-01
	O27	O	4.754000000000E-01	2.377000000000E-01	1.362000000000E-01
	O28	O	-2.377000000000E-01	2.377000000000E-01	1.362000000000E-01
	O29	O	2.377000000000E-01	-2.377000000000E-01	-3.638000000000E-01
	O30	O	-4.754000000000E-01	-2.377000000000E-01	-3.638000000000E-01
	O31	O	2.377000000000E-01	4.754000000000E-01	-1.362000000000E-01
	O32	O	2.377000000000E-01	-2.377000000000E-01	-1.362000000000E-01
	O33	O	-4.754000000000E-01	-2.377000000000E-01	-1.362000000000E-01
	O34	O	4.754000000000E-01	2.377000000000E-01	3.638000000000E-01
	O35	O	-2.377000000000E-01	2.377000000000E-01	3.638000000000E-01
	O36	O	-2.377000000000E-01	-4.754000000000E-01	3.638000000000E-01
	O37	O	4.014000000000E-01	6.330000000000E-02	2.500000000000E-01
	O38	O	-4.014000000000E-01	-6.330000000000E-02	-2.500000000000E-01
	O39	O	-6.330000000000E-02	3.381000000000E-01	2.500000000000E-01
	O40	O	-3.381000000000E-01	-4.014000000000E-01	2.500000000000E-01
	O41	O	3.381000000000E-01	4.014000000000E-01	-2.500000000000E-01
	O42	O	6.330000000000E-02	-3.381000000000E-01	-2.500000000000E-01
	O43	O	3.381000000000E-01	-6.330000000000E-02	-2.500000000000E-01
	O44	O	-4.014000000000E-01	-3.381000000000E-01	-2.500000000000E-01
	O45	O	6.330000000000E-02	4.014000000000E-01	-2.500000000000E-01
	O46	O	-6.330000000000E-02	-4.014000000000E-01	2.500000000000E-01
	O47	O	4.014000000000E-01	3.381000000000E-01	2.500000000000E-01
	O48	O	-3.381000000000E-01	6.330000000000E-02	2.500000000000E-01
	O49	O	-4.603000000000E-01	7.940000000000E-02	1.179000000000E-01
	O50	O	4.603000000000E-01	-7.940000000000E-02	-3.821000000000E-01
	O51	O	-7.940000000000E-02	4.603000000000E-01	1.179000000000E-01
	O52	O	-4.603000000000E-01	4.603000000000E-01	1.179000000000E-01
	O53	O	4.603000000000E-01	-4.603000000000E-01	-3.821000000000E-01
	O54	O	7.940000000000E-02	-4.603000000000E-01	-3.821000000000E-01
	O55	O	4.603000000000E-01	-7.940000000000E-02	-1.179000000000E-01
	O56	O	4.603000000000E-01	-4.603000000000E-01	-1.179000000000E-01
	O57	O	7.940000000000E-02	-4.603000000000E-01	-1.179000000000E-01
	O58	O	-7.940000000000E-02	4.603000000000E-01	3.821000000000E-01
	O59	O	-4.603000000000E-01	4.603000000000E-01	3.821000000000E-01
	O60	O	-4.603000000000E-01	7.940000000000E-02	3.821000000000E-01
	O61	O	-1.125000000000E-01	-2.250000000000E-01	-4.815000000000E-01
	O62	O	1.125000000000E-01	2.250000000000E-01	1.850000000000E-02
	O63	O	2.250000000000E-01	1.125000000000E-01	-4.815000000000E-01
	O64	O	-1.125000000000E-01	1.125000000000E-01	-4.815000000000E-01
	O65	O	1.125000000000E-01	-1.125000000000E-01	1.850000000000E-02
	O66	O	-2.250000000000E-01	-1.125000000000E-01	1.850000000000E-02
	O67	O	1.125000000000E-01	2.250000000000E-01	4.815000000000E-01
	O68	O	1.125000000000E-01	-1.125000000000E-01	4.815000000000E-01
	O69	O	-2.250000000000E-01	-1.125000000000E-01	4.815000000000E-01
	O70	O	2.250000000000E-01	1.125000000000E-01	-1.850000000000E-02
	O71	O	-1.125000000000E-01	1.125000000000E-01	-1.850000000000E-02
	O72	O	-1.125000000000E-01	-2.250000000000E-01	-1.850000000000E-02
	Si73	Si	4.345000000000E-01	1.010000000000E-01	1.474000000000E-01
	Si74	Si	-4.345000000000E-01	-1.010000000000E-01	-3.526000000000E-01
	Si75	Si	-1.010000000000E-01	3.335000000000E-01	1.474000000000E-01
	Si76	Si	-3.335000000000E-01	-4.345000000000E-01	1.474000000000E-01
	Si77	Si	3.335000000000E-01	4.345000000000E-01	-3.526000000000E-01
	Si78	Si	1.010000000000E-01	-3.335000000000E-01	-3.526000000000E-01
	Si79	Si	3.335000000000E-01	-1.010000000000E-01	-1.474000000000E-01
	Si80	Si	-4.345000000000E-01	-3.335000000000E-01	-1.474000000000E-01
	Si81	Si	1.010000000000E-01	4.345000000000E-01	-1.474000000000E-01
	Si82	Si	-1.010000000000E-01	-4.345000000000E-01	3.526000000000E-01
	Si83	Si	4.345000000000E-01	3.335000000000E-01	3.526000000000E-01
	Si84	Si	-3.335000000000E-01	1.010000000000E-01	3.526000000000E-01
	Si85	Si	-4.345000000000E-01	-1.010000000000E-01	-1.474000000000E-01
	Si86	Si	4.345000000000E-01	1.010000000000E-01	3.526000000000E-01
	Si87	Si	1.010000000000E-01	-3.335000000000E-01	-1.474000000000E-01
	Si88	Si	3.335000000000E-01	4.345000000000E-01	-1.474000000000E-01
	Si89	Si	-3.335000000000E-01	-4.345000000000E-01	3.526000000000E-01
	Si90	Si	-1.010000000000E-01	3.335000000000E-01	3.526000000000E-01
	Si91	Si	-3.335000000000E-01	1.010000000000E-01	1.474000000000E-01
	Si92	Si	4.345000000000E-01	3.335000000000E-01	1.474000000000E-01
	Si93	Si	-1.010000000000E-01	-4.345000000000E-01	1.474000000000E-01
	Si94	Si	1.010000000000E-01	4.345000000000E-01	-3.526000000000E-01
	Si95	Si	-4.345000000000E-01	-3.335000000000E-01	-3.526000000000E-01
	Si96	Si	3.335000000000E-01	-1.010000000000E-01	-3.526000000000E-01
	Si97	Si	2.393000000000E-01	5.551115123126E-17	0.000000000000E+00
	Si98	Si	-2.393000000000E-01	-5.551115123126E-17	5.000000000000E-01
	Si99	Si	1.945629267348E-17	2.393000000000E-01	0.000000000000E+00
	Si100	Si	-2.393000000000E-01	-2.393000000000E-01	0.000000000000E+00
	Si101	Si	2.393000000000E-01	2.393000000000E-01	5.000000000000E-01
	Si102	Si	-1.945629267348E-17	-2.393000000000E-01	5.000000000000E-01
	Si103	Si	-2.393000000000E-01	-5.551115123126E-17	0.000000000000E+00
	Si104	Si	2.393000000000E-01	5.551115123126E-17	5.000000000000E-01
	Si105	Si	-1.945629267348E-17	-2.393000000000E-01	0.000000000000E+00
	Si106	Si	2.393000000000E-01	2.393000000000E-01	0.000000000000E+00
	Si107	Si	-2.393000000000E-01	-2.393000000000E-01	5.000000000000E-01
	Si108	Si	1.945629267348E-17	2.393000000000E-01	5.000000000000E-01
