data EPI
_chemical_name_common		'EPI'
_cell_length_a		9.85967202
_cell_length_b		9.85967202
_cell_length_c		20.75400000
_cell_angle_alpha		74.628698
_cell_angle_beta		105.371302
_cell_angle_gamma		55.141688
_space group_name_H-M_alt		'P 1'
_space_group_IT_number		1

loop_
	_atom_site_label
	_atom_site_type_symbol
	_atom_site_fract_x
	_atom_site_fract_y
	_atom_site_fract_z
	O1	O	-6.750000000000E-02	2.957000000000E-01	6.320000000000E-02
	O2	O	2.957000000000E-01	-6.750000000000E-02	-6.320000000000E-02
	O3	O	6.750000000000E-02	-2.957000000000E-01	-6.320000000000E-02
	O4	O	-2.957000000000E-01	6.750000000000E-02	6.320000000000E-02
	O5	O	3.900000000000E-02	-3.900000000000E-02	9.605000000000E-02
	O6	O	-3.900000000000E-02	3.900000000000E-02	-9.605000000000E-02
	O7	O	3.023000000000E-01	-2.710000000000E-02	1.503500000000E-01
	O8	O	-2.710000000000E-02	3.023000000000E-01	-1.503500000000E-01
	O9	O	-3.023000000000E-01	2.710000000000E-02	-1.503500000000E-01
	O10	O	2.710000000000E-02	-3.023000000000E-01	1.503500000000E-01
	O11	O	1.091000000000E-01	1.091000000000E-01	0.000000000000E+00
	O12	O	-1.091000000000E-01	-1.091000000000E-01	0.000000000000E+00
	O13	O	-4.524000000000E-01	-9.200000000000E-03	1.320500000000E-01
	O14	O	-9.200000000000E-03	-4.524000000000E-01	-1.320500000000E-01
	O15	O	4.524000000000E-01	9.200000000000E-03	-1.320500000000E-01
	O16	O	9.200000000000E-03	4.524000000000E-01	1.320500000000E-01
	O17	O	-5.000000000000E-01	2.018701344126E-17	2.500000000000E-01
	O18	O	9.083528902126E-17	-5.000000000000E-01	2.500000000000E-01
	O19	O	-3.223000000000E-01	-3.223000000000E-01	2.500000000000E-01
	O20	O	3.223000000000E-01	3.223000000000E-01	2.500000000000E-01
	O21	O	-3.251000000000E-01	-3.251000000000E-01	0.000000000000E+00
	O22	O	3.251000000000E-01	3.251000000000E-01	0.000000000000E+00
	O23	O	-7.011592775406E-17	-5.000000000000E-01	0.000000000000E+00
	O24	O	-5.000000000000E-01	-4.499080293497E-17	0.000000000000E+00
	Si25	Si	9.490000000000E-02	8.510000000000E-02	7.705000000000E-02
	Si26	Si	8.510000000000E-02	9.490000000000E-02	-7.705000000000E-02
	Si27	Si	-9.490000000000E-02	-8.510000000000E-02	-7.705000000000E-02
	Si28	Si	-8.510000000000E-02	-9.490000000000E-02	7.705000000000E-02
	Si29	Si	-4.937000000000E-01	-8.890000000000E-02	1.949500000000E-01
	Si30	Si	-8.890000000000E-02	-4.937000000000E-01	-1.949500000000E-01
	Si31	Si	4.937000000000E-01	8.890000000000E-02	-1.949500000000E-01
	Si32	Si	8.890000000000E-02	4.937000000000E-01	1.949500000000E-01
	Si33	Si	-9.680000000000E-02	4.818000000000E-01	4.885000000000E-02
	Si34	Si	4.818000000000E-01	-9.680000000000E-02	-4.885000000000E-02
	Si35	Si	9.680000000000E-02	-4.818000000000E-01	-4.885000000000E-02
	Si36	Si	-4.818000000000E-01	9.680000000000E-02	4.885000000000E-02
	O37	O	3.900000000000E-02	-3.900000000000E-02	-4.039500000000E-01
	O38	O	-3.223000000000E-01	-3.223000000000E-01	-2.500000000000E-01
	O39	O	2.710000000000E-02	-3.023000000000E-01	-3.496500000000E-01
	O40	O	3.223000000000E-01	3.223000000000E-01	-2.500000000000E-01
	O41	O	6.750000000000E-02	-2.957000000000E-01	4.368000000000E-01
	O42	O	-3.251000000000E-01	-3.251000000000E-01	-5.000000000000E-01
	O43	O	1.091000000000E-01	1.091000000000E-01	-5.000000000000E-01
	O44	O	3.251000000000E-01	3.251000000000E-01	-5.000000000000E-01
	O45	O	-3.900000000000E-02	3.900000000000E-02	4.039500000000E-01
	O46	O	-1.185137271482E-16	-5.000000000000E-01	-5.000000000000E-01
	O47	O	-1.091000000000E-01	-1.091000000000E-01	-5.000000000000E-01
	O48	O	-5.000000000000E-01	4.515806345357E-16	-5.000000000000E-01
	O49	O	2.957000000000E-01	-6.750000000000E-02	4.368000000000E-01
	Si50	Si	9.490000000000E-02	8.510000000000E-02	-4.229500000000E-01
	O51	O	-4.524000000000E-01	-9.200000000000E-03	-3.679500000000E-01
	Si52	Si	8.510000000000E-02	9.490000000000E-02	4.229500000000E-01
	O53	O	3.023000000000E-01	-2.710000000000E-02	-3.496500000000E-01
	Si54	Si	-9.490000000000E-02	-8.510000000000E-02	4.229500000000E-01
	O55	O	-9.200000000000E-03	-4.524000000000E-01	3.679500000000E-01
	Si56	Si	-8.510000000000E-02	-9.490000000000E-02	-4.229500000000E-01
	O57	O	-2.957000000000E-01	6.750000000000E-02	-4.368000000000E-01
	Si58	Si	-4.937000000000E-01	-8.890000000000E-02	-3.050500000000E-01
	O59	O	4.524000000000E-01	9.200000000000E-03	3.679500000000E-01
	Si60	Si	-8.890000000000E-02	-4.937000000000E-01	3.050500000000E-01
	O61	O	-2.710000000000E-02	3.023000000000E-01	3.496500000000E-01
	Si62	Si	4.937000000000E-01	8.890000000000E-02	3.050500000000E-01
	O63	O	9.200000000000E-03	4.524000000000E-01	-3.679500000000E-01
	Si64	Si	8.890000000000E-02	4.937000000000E-01	-3.050500000000E-01
	O65	O	-6.750000000000E-02	2.957000000000E-01	-4.368000000000E-01
	Si66	Si	-9.680000000000E-02	4.818000000000E-01	-4.511500000000E-01
	O67	O	-5.000000000000E-01	2.913688985401E-17	-2.500000000000E-01
	Si68	Si	4.818000000000E-01	-9.680000000000E-02	4.511500000000E-01
	O69	O	-3.023000000000E-01	2.710000000000E-02	3.496500000000E-01
	Si70	Si	9.680000000000E-02	-4.818000000000E-01	4.511500000000E-01
	O71	O	8.188541260851E-17	-5.000000000000E-01	-2.500000000000E-01
	Si72	Si	-4.818000000000E-01	9.680000000000E-02	-4.511500000000E-01
