data ERI
_chemical_name_common		'ERI'
_cell_length_a		13.05400000
_cell_length_b		13.05400000
_cell_length_c		15.17500000
_cell_angle_alpha		90.000000
_cell_angle_beta		90.000000
_cell_angle_gamma		120.000000
_space group_name_H-M_alt		'P 1'
_space_group_IT_number		1

loop_
	_atom_site_label
	_atom_site_type_symbol
	_atom_site_fract_x
	_atom_site_fract_y
	_atom_site_fract_z
	O1	O	1.289000000000E-01	2.578000000000E-01	-3.719000000000E-01
	O2	O	-1.289000000000E-01	-2.578000000000E-01	1.281000000000E-01
	O3	O	-2.578000000000E-01	-1.289000000000E-01	-3.719000000000E-01
	O4	O	1.289000000000E-01	-1.289000000000E-01	-3.719000000000E-01
	O5	O	-1.289000000000E-01	1.289000000000E-01	1.281000000000E-01
	O6	O	2.578000000000E-01	1.289000000000E-01	1.281000000000E-01
	O7	O	-1.289000000000E-01	-2.578000000000E-01	3.719000000000E-01
	O8	O	-1.289000000000E-01	1.289000000000E-01	3.719000000000E-01
	O9	O	2.578000000000E-01	1.289000000000E-01	3.719000000000E-01
	O10	O	-2.578000000000E-01	-1.289000000000E-01	-1.281000000000E-01
	O11	O	1.289000000000E-01	-1.289000000000E-01	-1.281000000000E-01
	O12	O	1.289000000000E-01	2.578000000000E-01	-1.281000000000E-01
	O13	O	3.600000000000E-02	3.474000000000E-01	1.634000000000E-01
	O14	O	-3.600000000000E-02	-3.474000000000E-01	-3.366000000000E-01
	O15	O	-3.474000000000E-01	-3.114000000000E-01	1.634000000000E-01
	O16	O	3.114000000000E-01	-3.600000000000E-02	1.634000000000E-01
	O17	O	-3.114000000000E-01	3.600000000000E-02	-3.366000000000E-01
	O18	O	3.474000000000E-01	3.114000000000E-01	-3.366000000000E-01
	O19	O	-3.114000000000E-01	-3.474000000000E-01	-1.634000000000E-01
	O20	O	-3.600000000000E-02	3.114000000000E-01	-1.634000000000E-01
	O21	O	3.474000000000E-01	3.600000000000E-02	-1.634000000000E-01
	O22	O	-3.474000000000E-01	-3.600000000000E-02	3.366000000000E-01
	O23	O	3.600000000000E-02	-3.114000000000E-01	3.366000000000E-01
	O24	O	3.114000000000E-01	3.474000000000E-01	3.366000000000E-01
	O25	O	-3.600000000000E-02	-3.474000000000E-01	-1.634000000000E-01
	O26	O	3.600000000000E-02	3.474000000000E-01	3.366000000000E-01
	O27	O	3.474000000000E-01	3.114000000000E-01	-1.634000000000E-01
	O28	O	-3.114000000000E-01	3.600000000000E-02	-1.634000000000E-01
	O29	O	3.114000000000E-01	-3.600000000000E-02	3.366000000000E-01
	O30	O	-3.474000000000E-01	-3.114000000000E-01	3.366000000000E-01
	O31	O	3.114000000000E-01	3.474000000000E-01	1.634000000000E-01
	O32	O	3.600000000000E-02	-3.114000000000E-01	1.634000000000E-01
	O33	O	-3.474000000000E-01	-3.600000000000E-02	1.634000000000E-01
	O34	O	3.474000000000E-01	3.600000000000E-02	-3.366000000000E-01
	O35	O	-3.600000000000E-02	3.114000000000E-01	-3.366000000000E-01
	O36	O	-3.114000000000E-01	-3.474000000000E-01	-3.366000000000E-01
	O37	O	9.570000000000E-02	1.914000000000E-01	1.139000000000E-01
	O38	O	-9.570000000000E-02	-1.914000000000E-01	-3.861000000000E-01
	O39	O	-1.914000000000E-01	-9.570000000000E-02	1.139000000000E-01
	O40	O	9.570000000000E-02	-9.570000000000E-02	1.139000000000E-01
	O41	O	-9.570000000000E-02	9.570000000000E-02	-3.861000000000E-01
	O42	O	1.914000000000E-01	9.570000000000E-02	-3.861000000000E-01
	O43	O	-9.570000000000E-02	-1.914000000000E-01	-1.139000000000E-01
	O44	O	-9.570000000000E-02	9.570000000000E-02	-1.139000000000E-01
	O45	O	1.914000000000E-01	9.570000000000E-02	-1.139000000000E-01
	O46	O	-1.914000000000E-01	-9.570000000000E-02	3.861000000000E-01
	O47	O	9.570000000000E-02	-9.570000000000E-02	3.861000000000E-01
	O48	O	9.570000000000E-02	1.914000000000E-01	3.861000000000E-01
	O49	O	2.705000000000E-01	-2.775557561563E-17	0.000000000000E+00
	O50	O	-2.705000000000E-01	2.775557561563E-17	5.000000000000E-01
	O51	O	3.928221615614E-17	2.705000000000E-01	0.000000000000E+00
	O52	O	-2.705000000000E-01	-2.705000000000E-01	0.000000000000E+00
	O53	O	2.705000000000E-01	2.705000000000E-01	5.000000000000E-01
	O54	O	-3.928221615614E-17	-2.705000000000E-01	5.000000000000E-01
	O55	O	-2.705000000000E-01	2.775557561563E-17	0.000000000000E+00
	O56	O	2.705000000000E-01	-2.775557561563E-17	5.000000000000E-01
	O57	O	-3.928221615614E-17	-2.705000000000E-01	0.000000000000E+00
	O58	O	2.705000000000E-01	2.705000000000E-01	0.000000000000E+00
	O59	O	-2.705000000000E-01	-2.705000000000E-01	5.000000000000E-01
	O60	O	3.928221615614E-17	2.705000000000E-01	5.000000000000E-01
	O61	O	2.356000000000E-01	4.712000000000E-01	2.500000000000E-01
	O62	O	-2.356000000000E-01	-4.712000000000E-01	-2.500000000000E-01
	O63	O	-4.712000000000E-01	-2.356000000000E-01	2.500000000000E-01
	O64	O	2.356000000000E-01	-2.356000000000E-01	2.500000000000E-01
	O65	O	-2.356000000000E-01	2.356000000000E-01	-2.500000000000E-01
	O66	O	4.712000000000E-01	2.356000000000E-01	-2.500000000000E-01
	O67	O	4.621500000000E-01	-7.570000000000E-02	2.500000000000E-01
	O68	O	-4.621500000000E-01	7.570000000000E-02	-2.500000000000E-01
	O69	O	7.570000000000E-02	-4.621500000000E-01	2.500000000000E-01
	O70	O	4.621500000000E-01	-4.621500000000E-01	2.500000000000E-01
	O71	O	-4.621500000000E-01	4.621500000000E-01	-2.500000000000E-01
	O72	O	-7.570000000000E-02	4.621500000000E-01	-2.500000000000E-01
	Si73	Si	6.000000000000E-04	2.345000000000E-01	1.014000000000E-01
	Si74	Si	-6.000000000000E-04	-2.345000000000E-01	-3.986000000000E-01
	Si75	Si	-2.345000000000E-01	-2.339000000000E-01	1.014000000000E-01
	Si76	Si	2.339000000000E-01	-6.000000000000E-04	1.014000000000E-01
	Si77	Si	-2.339000000000E-01	6.000000000000E-04	-3.986000000000E-01
	Si78	Si	2.345000000000E-01	2.339000000000E-01	-3.986000000000E-01
	Si79	Si	-2.339000000000E-01	-2.345000000000E-01	-1.014000000000E-01
	Si80	Si	-6.000000000000E-04	2.339000000000E-01	-1.014000000000E-01
	Si81	Si	2.345000000000E-01	6.000000000000E-04	-1.014000000000E-01
	Si82	Si	-2.345000000000E-01	-6.000000000000E-04	3.986000000000E-01
	Si83	Si	6.000000000000E-04	-2.339000000000E-01	3.986000000000E-01
	Si84	Si	2.339000000000E-01	2.345000000000E-01	3.986000000000E-01
	Si85	Si	-6.000000000000E-04	-2.345000000000E-01	-1.014000000000E-01
	Si86	Si	6.000000000000E-04	2.345000000000E-01	3.986000000000E-01
	Si87	Si	2.345000000000E-01	2.339000000000E-01	-1.014000000000E-01
	Si88	Si	-2.339000000000E-01	6.000000000000E-04	-1.014000000000E-01
	Si89	Si	2.339000000000E-01	-6.000000000000E-04	3.986000000000E-01
	Si90	Si	-2.345000000000E-01	-2.339000000000E-01	3.986000000000E-01
	Si91	Si	2.339000000000E-01	2.345000000000E-01	1.014000000000E-01
	Si92	Si	6.000000000000E-04	-2.339000000000E-01	1.014000000000E-01
	Si93	Si	-2.345000000000E-01	-6.000000000000E-04	1.014000000000E-01
	Si94	Si	2.345000000000E-01	6.000000000000E-04	-3.986000000000E-01
	Si95	Si	-6.000000000000E-04	2.339000000000E-01	-3.986000000000E-01
	Si96	Si	-2.339000000000E-01	-2.345000000000E-01	-3.986000000000E-01
	Si97	Si	9.610000000000E-02	4.261000000000E-01	2.500000000000E-01
	Si98	Si	-9.610000000000E-02	-4.261000000000E-01	-2.500000000000E-01
	Si99	Si	-4.261000000000E-01	-3.300000000000E-01	2.500000000000E-01
	Si100	Si	3.300000000000E-01	-9.610000000000E-02	2.500000000000E-01
	Si101	Si	-3.300000000000E-01	9.610000000000E-02	-2.500000000000E-01
	Si102	Si	4.261000000000E-01	3.300000000000E-01	-2.500000000000E-01
	Si103	Si	-3.300000000000E-01	-4.261000000000E-01	-2.500000000000E-01
	Si104	Si	-9.610000000000E-02	3.300000000000E-01	-2.500000000000E-01
	Si105	Si	4.261000000000E-01	9.610000000000E-02	-2.500000000000E-01
	Si106	Si	-4.261000000000E-01	-9.610000000000E-02	2.500000000000E-01
	Si107	Si	9.610000000000E-02	-3.300000000000E-01	2.500000000000E-01
	Si108	Si	3.300000000000E-01	4.261000000000E-01	2.500000000000E-01
