data ESV
_chemical_name_common		'ESV'
_cell_length_a		9.68600000
_cell_length_b		12.22600000
_cell_length_c		22.83600000
_cell_angle_alpha		90.000000
_cell_angle_beta		90.000000
_cell_angle_gamma		90.000000
_space group_name_H-M_alt		'P 1'
_space_group_IT_number		1

loop_
	_atom_site_label
	_atom_site_type_symbol
	_atom_site_fract_x
	_atom_site_fract_y
	_atom_site_fract_z
	O1	O	2.957000000000E-01	-2.500000000000E-01	-1.498000000000E-01
	O2	O	2.043000000000E-01	2.500000000000E-01	3.502000000000E-01
	O3	O	-2.043000000000E-01	-2.500000000000E-01	-3.502000000000E-01
	O4	O	-2.957000000000E-01	2.500000000000E-01	1.498000000000E-01
	O5	O	2.484000000000E-01	-8.170000000000E-02	-8.100000000000E-02
	O6	O	2.516000000000E-01	8.170000000000E-02	4.190000000000E-01
	O7	O	-2.516000000000E-01	-4.183000000000E-01	-4.190000000000E-01
	O8	O	-2.484000000000E-01	4.183000000000E-01	8.100000000000E-02
	O9	O	-2.484000000000E-01	8.170000000000E-02	8.100000000000E-02
	O10	O	-2.516000000000E-01	-8.170000000000E-02	-4.190000000000E-01
	O11	O	2.516000000000E-01	4.183000000000E-01	4.190000000000E-01
	O12	O	2.484000000000E-01	-4.183000000000E-01	-8.100000000000E-02
	O13	O	4.970000000000E-01	-1.144000000000E-01	-1.236000000000E-01
	O14	O	3.000000000000E-03	1.144000000000E-01	3.764000000000E-01
	O15	O	-3.000000000000E-03	-3.856000000000E-01	-3.764000000000E-01
	O16	O	-4.970000000000E-01	3.856000000000E-01	1.236000000000E-01
	O17	O	-4.970000000000E-01	1.144000000000E-01	1.236000000000E-01
	O18	O	-3.000000000000E-03	-1.144000000000E-01	-3.764000000000E-01
	O19	O	3.000000000000E-03	3.856000000000E-01	3.764000000000E-01
	O20	O	4.970000000000E-01	-3.856000000000E-01	-1.236000000000E-01
	O21	O	2.966000000000E-01	-5.080000000000E-02	-1.932000000000E-01
	O22	O	2.034000000000E-01	5.080000000000E-02	3.068000000000E-01
	O23	O	-2.034000000000E-01	-4.492000000000E-01	-3.068000000000E-01
	O24	O	-2.966000000000E-01	4.492000000000E-01	1.932000000000E-01
	O25	O	-2.966000000000E-01	5.080000000000E-02	1.932000000000E-01
	O26	O	-2.034000000000E-01	-5.080000000000E-02	-3.068000000000E-01
	O27	O	2.034000000000E-01	4.492000000000E-01	3.068000000000E-01
	O28	O	2.966000000000E-01	-4.492000000000E-01	-1.932000000000E-01
	O29	O	-3.169000000000E-01	-2.500000000000E-01	-4.851000000000E-01
	O30	O	-1.831000000000E-01	2.500000000000E-01	1.490000000000E-02
	O31	O	1.831000000000E-01	-2.500000000000E-01	-1.490000000000E-02
	O32	O	3.169000000000E-01	2.500000000000E-01	4.851000000000E-01
	O33	O	-3.152000000000E-01	-5.200000000000E-02	4.702000000000E-01
	O34	O	-1.848000000000E-01	5.200000000000E-02	-2.980000000000E-02
	O35	O	1.848000000000E-01	-4.480000000000E-01	2.980000000000E-02
	O36	O	3.152000000000E-01	4.480000000000E-01	-4.702000000000E-01
	O37	O	3.152000000000E-01	5.200000000000E-02	-4.702000000000E-01
	O38	O	1.848000000000E-01	-5.200000000000E-02	2.980000000000E-02
	O39	O	-1.848000000000E-01	4.480000000000E-01	-2.980000000000E-02
	O40	O	-3.152000000000E-01	-4.480000000000E-01	4.702000000000E-01
	O41	O	4.925000000000E-01	-1.079000000000E-01	-4.543000000000E-01
	O42	O	7.500000000000E-03	1.079000000000E-01	4.570000000000E-02
	O43	O	-7.500000000000E-03	-3.921000000000E-01	-4.570000000000E-02
	O44	O	-4.925000000000E-01	3.921000000000E-01	4.543000000000E-01
	O45	O	-4.925000000000E-01	1.079000000000E-01	4.543000000000E-01
	O46	O	-7.500000000000E-03	-1.079000000000E-01	-4.570000000000E-02
	O47	O	7.500000000000E-03	3.921000000000E-01	4.570000000000E-02
	O48	O	4.925000000000E-01	-3.921000000000E-01	-4.543000000000E-01
	O49	O	-3.750000000000E-02	4.563000000000E-01	-1.265000000000E-01
	O50	O	-4.625000000000E-01	-4.563000000000E-01	3.735000000000E-01
	O51	O	4.625000000000E-01	4.370000000000E-02	-3.735000000000E-01
	O52	O	3.750000000000E-02	-4.370000000000E-02	1.265000000000E-01
	O53	O	3.750000000000E-02	-4.563000000000E-01	1.265000000000E-01
	O54	O	4.625000000000E-01	4.563000000000E-01	-3.735000000000E-01
	O55	O	-4.625000000000E-01	-4.370000000000E-02	3.735000000000E-01
	O56	O	-3.750000000000E-02	4.370000000000E-02	-1.265000000000E-01
	O57	O	-2.347000000000E-01	-3.997000000000E-01	-1.082000000000E-01
	O58	O	-2.653000000000E-01	3.997000000000E-01	3.918000000000E-01
	O59	O	2.653000000000E-01	-1.003000000000E-01	-3.918000000000E-01
	O60	O	2.347000000000E-01	1.003000000000E-01	1.082000000000E-01
	O61	O	2.347000000000E-01	3.997000000000E-01	1.082000000000E-01
	O62	O	2.653000000000E-01	-3.997000000000E-01	-3.918000000000E-01
	O63	O	-2.653000000000E-01	1.003000000000E-01	3.918000000000E-01
	O64	O	-2.347000000000E-01	-1.003000000000E-01	-1.082000000000E-01
	O65	O	1.628000000000E-01	-2.500000000000E-01	-3.217000000000E-01
	O66	O	3.372000000000E-01	2.500000000000E-01	1.783000000000E-01
	O67	O	-3.372000000000E-01	-2.500000000000E-01	-1.783000000000E-01
	O68	O	-1.628000000000E-01	2.500000000000E-01	3.217000000000E-01
	O69	O	1.549000000000E-01	-4.575000000000E-01	-2.912000000000E-01
	O70	O	3.451000000000E-01	4.575000000000E-01	2.088000000000E-01
	O71	O	-3.451000000000E-01	-4.250000000000E-02	-2.088000000000E-01
	O72	O	-1.549000000000E-01	4.250000000000E-02	2.912000000000E-01
	O73	O	-1.549000000000E-01	4.575000000000E-01	2.912000000000E-01
	O74	O	-3.451000000000E-01	-4.575000000000E-01	-2.088000000000E-01
	O75	O	3.451000000000E-01	4.250000000000E-02	2.088000000000E-01
	O76	O	1.549000000000E-01	-4.250000000000E-02	-2.912000000000E-01
	O77	O	-4.160000000000E-02	2.500000000000E-01	-1.592000000000E-01
	O78	O	-4.584000000000E-01	-2.500000000000E-01	3.408000000000E-01
	O79	O	4.584000000000E-01	2.500000000000E-01	-3.408000000000E-01
	O80	O	4.160000000000E-02	-2.500000000000E-01	1.592000000000E-01
	O81	O	3.545000000000E-01	4.011000000000E-01	-2.720000000000E-01
	O82	O	1.455000000000E-01	-4.011000000000E-01	2.280000000000E-01
	O83	O	-1.455000000000E-01	9.890000000000E-02	-2.280000000000E-01
	O84	O	-3.545000000000E-01	-9.890000000000E-02	2.720000000000E-01
	O85	O	-3.545000000000E-01	-4.011000000000E-01	2.720000000000E-01
	O86	O	-1.455000000000E-01	4.011000000000E-01	-2.280000000000E-01
	O87	O	1.455000000000E-01	-9.890000000000E-02	2.280000000000E-01
	O88	O	3.545000000000E-01	9.890000000000E-02	-2.720000000000E-01
	O89	O	1.231000000000E-01	3.891000000000E-01	-2.119000000000E-01
	O90	O	3.769000000000E-01	-3.891000000000E-01	2.881000000000E-01
	O91	O	-3.769000000000E-01	1.109000000000E-01	-2.881000000000E-01
	O92	O	-1.231000000000E-01	-1.109000000000E-01	2.119000000000E-01
	O93	O	-1.231000000000E-01	-3.891000000000E-01	2.119000000000E-01
	O94	O	-3.769000000000E-01	3.891000000000E-01	-2.881000000000E-01
	O95	O	3.769000000000E-01	-1.109000000000E-01	2.881000000000E-01
	O96	O	1.231000000000E-01	1.109000000000E-01	-2.119000000000E-01
	Si97	Si	3.342000000000E-01	-1.242000000000E-01	-1.370000000000E-01
	Si98	Si	1.658000000000E-01	1.242000000000E-01	3.630000000000E-01
	Si99	Si	-1.658000000000E-01	-3.758000000000E-01	-3.630000000000E-01
	Si100	Si	-3.342000000000E-01	3.758000000000E-01	1.370000000000E-01
	Si101	Si	-3.342000000000E-01	1.242000000000E-01	1.370000000000E-01
	Si102	Si	-1.658000000000E-01	-1.242000000000E-01	-3.630000000000E-01
	Si103	Si	1.658000000000E-01	3.758000000000E-01	3.630000000000E-01
	Si104	Si	3.342000000000E-01	-3.758000000000E-01	-1.370000000000E-01
	Si105	Si	-3.478000000000E-01	-1.230000000000E-01	-4.721000000000E-01
	Si106	Si	-1.522000000000E-01	1.230000000000E-01	2.790000000000E-02
	Si107	Si	1.522000000000E-01	-3.770000000000E-01	-2.790000000000E-02
	Si108	Si	3.478000000000E-01	3.770000000000E-01	4.721000000000E-01
	Si109	Si	3.478000000000E-01	1.230000000000E-01	4.721000000000E-01
	Si110	Si	1.522000000000E-01	-1.230000000000E-01	-2.790000000000E-02
	Si111	Si	-1.522000000000E-01	3.770000000000E-01	2.790000000000E-02
	Si112	Si	-3.478000000000E-01	-3.770000000000E-01	-4.721000000000E-01
	Si113	Si	-1.161000000000E-01	-4.721000000000E-01	-7.770000000000E-02
	Si114	Si	-3.839000000000E-01	4.721000000000E-01	4.223000000000E-01
	Si115	Si	3.839000000000E-01	-2.790000000000E-02	-4.223000000000E-01
	Si116	Si	1.161000000000E-01	2.790000000000E-02	7.770000000000E-02
	Si117	Si	1.161000000000E-01	4.721000000000E-01	7.770000000000E-02
	Si118	Si	3.839000000000E-01	-4.721000000000E-01	-4.223000000000E-01
	Si119	Si	-3.839000000000E-01	2.790000000000E-02	4.223000000000E-01
	Si120	Si	-1.161000000000E-01	-2.790000000000E-02	-7.770000000000E-02
	Si121	Si	1.453000000000E-01	-1.265000000000E-01	-3.452000000000E-01
	Si122	Si	3.547000000000E-01	1.265000000000E-01	1.548000000000E-01
	Si123	Si	-3.547000000000E-01	-3.735000000000E-01	-1.548000000000E-01
	Si124	Si	-1.453000000000E-01	3.735000000000E-01	3.452000000000E-01
	Si125	Si	-1.453000000000E-01	1.265000000000E-01	3.452000000000E-01
	Si126	Si	-3.547000000000E-01	-1.265000000000E-01	-1.548000000000E-01
	Si127	Si	3.547000000000E-01	3.735000000000E-01	1.548000000000E-01
	Si128	Si	1.453000000000E-01	-3.735000000000E-01	-3.452000000000E-01
	Si129	Si	-2.560000000000E-02	1.256000000000E-01	-1.814000000000E-01
	Si130	Si	-4.744000000000E-01	-1.256000000000E-01	3.186000000000E-01
	Si131	Si	4.744000000000E-01	3.744000000000E-01	-3.186000000000E-01
	Si132	Si	2.560000000000E-02	-3.744000000000E-01	1.814000000000E-01
	Si133	Si	2.560000000000E-02	-1.256000000000E-01	1.814000000000E-01
	Si134	Si	4.744000000000E-01	1.256000000000E-01	-3.186000000000E-01
	Si135	Si	-4.744000000000E-01	-3.744000000000E-01	3.186000000000E-01
	Si136	Si	-2.560000000000E-02	3.744000000000E-01	-1.814000000000E-01
	Si137	Si	2.325000000000E-01	4.708000000000E-01	-2.420000000000E-01
	Si138	Si	2.675000000000E-01	-4.708000000000E-01	2.580000000000E-01
	Si139	Si	-2.675000000000E-01	2.920000000000E-02	-2.580000000000E-01
	Si140	Si	-2.325000000000E-01	-2.920000000000E-02	2.420000000000E-01
	Si141	Si	-2.325000000000E-01	-4.708000000000E-01	2.420000000000E-01
	Si142	Si	-2.675000000000E-01	4.708000000000E-01	-2.580000000000E-01
	Si143	Si	2.675000000000E-01	-2.920000000000E-02	2.580000000000E-01
	Si144	Si	2.325000000000E-01	2.920000000000E-02	-2.420000000000E-01
