data ETR
_chemical_name_common		'ETR'
_cell_length_a		20.63400000
_cell_length_b		20.63400000
_cell_length_c		8.42600000
_cell_angle_alpha		90.000000
_cell_angle_beta		90.000000
_cell_angle_gamma		120.000000
_space group_name_H-M_alt		'P 1'
_space_group_IT_number		1

loop_
	_atom_site_label
	_atom_site_type_symbol
	_atom_site_fract_x
	_atom_site_fract_y
	_atom_site_fract_z
	O1	O	-2.655000000000E-01	7.500000000000E-02	-1.617000000000E-01
	O2	O	2.655000000000E-01	-7.500000000000E-02	3.383000000000E-01
	O3	O	-7.500000000000E-02	-3.405000000000E-01	-1.617000000000E-01
	O4	O	3.405000000000E-01	2.655000000000E-01	-1.617000000000E-01
	O5	O	-3.405000000000E-01	-2.655000000000E-01	3.383000000000E-01
	O6	O	7.500000000000E-02	3.405000000000E-01	3.383000000000E-01
	O7	O	3.405000000000E-01	7.500000000000E-02	-1.617000000000E-01
	O8	O	-2.655000000000E-01	-3.405000000000E-01	-1.617000000000E-01
	O9	O	-7.500000000000E-02	2.655000000000E-01	-1.617000000000E-01
	O10	O	7.500000000000E-02	-2.655000000000E-01	3.383000000000E-01
	O11	O	2.655000000000E-01	3.405000000000E-01	3.383000000000E-01
	O12	O	-3.405000000000E-01	-7.500000000000E-02	3.383000000000E-01
	O13	O	-1.674000000000E-01	1.674000000000E-01	4.700000000000E-02
	O14	O	1.674000000000E-01	-1.674000000000E-01	-4.530000000000E-01
	O15	O	-1.674000000000E-01	-3.348000000000E-01	4.700000000000E-02
	O16	O	3.348000000000E-01	1.674000000000E-01	4.700000000000E-02
	O17	O	-3.348000000000E-01	-1.674000000000E-01	-4.530000000000E-01
	O18	O	1.674000000000E-01	3.348000000000E-01	-4.530000000000E-01
	O19	O	-3.031000000000E-01	1.479000000000E-01	3.700000000000E-02
	O20	O	3.031000000000E-01	-1.479000000000E-01	-4.630000000000E-01
	O21	O	-1.479000000000E-01	-4.510000000000E-01	3.700000000000E-02
	O22	O	4.510000000000E-01	3.031000000000E-01	3.700000000000E-02
	O23	O	-4.510000000000E-01	-3.031000000000E-01	-4.630000000000E-01
	O24	O	1.479000000000E-01	4.510000000000E-01	-4.630000000000E-01
	O25	O	4.510000000000E-01	1.479000000000E-01	3.700000000000E-02
	O26	O	-3.031000000000E-01	-4.510000000000E-01	3.700000000000E-02
	O27	O	-1.479000000000E-01	3.031000000000E-01	3.700000000000E-02
	O28	O	1.479000000000E-01	-3.031000000000E-01	-4.630000000000E-01
	O29	O	3.031000000000E-01	4.510000000000E-01	-4.630000000000E-01
	O30	O	-4.510000000000E-01	-1.479000000000E-01	-4.630000000000E-01
	O31	O	-2.846000000000E-01	3.900000000000E-02	1.408000000000E-01
	O32	O	2.846000000000E-01	-3.900000000000E-02	-3.592000000000E-01
	O33	O	-3.900000000000E-02	-3.236000000000E-01	1.408000000000E-01
	O34	O	3.236000000000E-01	2.846000000000E-01	1.408000000000E-01
	O35	O	-3.236000000000E-01	-2.846000000000E-01	-3.592000000000E-01
	O36	O	3.900000000000E-02	3.236000000000E-01	-3.592000000000E-01
	O37	O	3.236000000000E-01	3.900000000000E-02	1.408000000000E-01
	O38	O	-2.846000000000E-01	-3.236000000000E-01	1.408000000000E-01
	O39	O	-3.900000000000E-02	2.846000000000E-01	1.408000000000E-01
	O40	O	3.900000000000E-02	-2.846000000000E-01	-3.592000000000E-01
	O41	O	2.846000000000E-01	3.236000000000E-01	-3.592000000000E-01
	O42	O	-3.236000000000E-01	-3.900000000000E-02	-3.592000000000E-01
	O43	O	-2.762000000000E-01	2.762000000000E-01	1.582000000000E-01
	O44	O	2.762000000000E-01	-2.762000000000E-01	-3.418000000000E-01
	O45	O	-2.762000000000E-01	4.476000000000E-01	1.582000000000E-01
	O46	O	-4.476000000000E-01	2.762000000000E-01	1.582000000000E-01
	O47	O	4.476000000000E-01	-2.762000000000E-01	-3.418000000000E-01
	O48	O	2.762000000000E-01	-4.476000000000E-01	-3.418000000000E-01
	O49	O	-4.146000000000E-01	4.146000000000E-01	1.019000000000E-01
	O50	O	4.146000000000E-01	-4.146000000000E-01	-3.981000000000E-01
	O51	O	-4.146000000000E-01	1.708000000000E-01	1.019000000000E-01
	O52	O	-1.708000000000E-01	4.146000000000E-01	1.019000000000E-01
	O53	O	1.708000000000E-01	-4.146000000000E-01	-3.981000000000E-01
	O54	O	4.146000000000E-01	-1.708000000000E-01	-3.981000000000E-01
	O55	O	-3.389000000000E-01	1.553000000000E-01	3.351000000000E-01
	O56	O	3.389000000000E-01	-1.553000000000E-01	-1.649000000000E-01
	O57	O	-1.553000000000E-01	-4.942000000000E-01	3.351000000000E-01
	O58	O	4.942000000000E-01	3.389000000000E-01	3.351000000000E-01
	O59	O	-4.942000000000E-01	-3.389000000000E-01	-1.649000000000E-01
	O60	O	1.553000000000E-01	4.942000000000E-01	-1.649000000000E-01
	O61	O	4.942000000000E-01	1.553000000000E-01	3.351000000000E-01
	O62	O	-3.389000000000E-01	-4.942000000000E-01	3.351000000000E-01
	O63	O	-1.553000000000E-01	3.389000000000E-01	3.351000000000E-01
	O64	O	1.553000000000E-01	-3.389000000000E-01	-1.649000000000E-01
	O65	O	3.389000000000E-01	4.942000000000E-01	-1.649000000000E-01
	O66	O	-4.942000000000E-01	-1.553000000000E-01	-1.649000000000E-01
	O67	O	-4.173000000000E-01	-7.910000000000E-02	8.440000000000E-02
	O68	O	4.173000000000E-01	7.910000000000E-02	-4.156000000000E-01
	O69	O	7.910000000000E-02	-3.382000000000E-01	8.440000000000E-02
	O70	O	3.382000000000E-01	4.173000000000E-01	8.440000000000E-02
	O71	O	-3.382000000000E-01	-4.173000000000E-01	-4.156000000000E-01
	O72	O	-7.910000000000E-02	3.382000000000E-01	-4.156000000000E-01
	O73	O	3.382000000000E-01	-7.910000000000E-02	8.440000000000E-02
	O74	O	-4.173000000000E-01	-3.382000000000E-01	8.440000000000E-02
	O75	O	7.910000000000E-02	4.173000000000E-01	8.440000000000E-02
	O76	O	-7.910000000000E-02	-4.173000000000E-01	-4.156000000000E-01
	O77	O	4.173000000000E-01	3.382000000000E-01	-4.156000000000E-01
	O78	O	-3.382000000000E-01	7.910000000000E-02	-4.156000000000E-01
	O79	O	-4.012000000000E-01	9.900000000000E-03	3.195000000000E-01
	O80	O	4.012000000000E-01	-9.900000000000E-03	-1.805000000000E-01
	O81	O	-9.900000000000E-03	-4.111000000000E-01	3.195000000000E-01
	O82	O	4.111000000000E-01	4.012000000000E-01	3.195000000000E-01
	O83	O	-4.111000000000E-01	-4.012000000000E-01	-1.805000000000E-01
	O84	O	9.900000000000E-03	4.111000000000E-01	-1.805000000000E-01
	O85	O	4.111000000000E-01	9.900000000000E-03	3.195000000000E-01
	O86	O	-4.012000000000E-01	-4.111000000000E-01	3.195000000000E-01
	O87	O	-9.900000000000E-03	4.012000000000E-01	3.195000000000E-01
	O88	O	9.900000000000E-03	-4.012000000000E-01	-1.805000000000E-01
	O89	O	4.012000000000E-01	4.111000000000E-01	-1.805000000000E-01
	O90	O	-4.111000000000E-01	-9.900000000000E-03	-1.805000000000E-01
	O91	O	-4.646500000000E-01	4.646500000000E-01	4.887000000000E-01
	O92	O	4.646500000000E-01	-4.646500000000E-01	-1.130000000000E-02
	O93	O	-4.646500000000E-01	7.070000000000E-02	4.887000000000E-01
	O94	O	-7.070000000000E-02	4.646500000000E-01	4.887000000000E-01
	O95	O	7.070000000000E-02	-4.646500000000E-01	-1.130000000000E-02
	O96	O	4.646500000000E-01	-7.070000000000E-02	-1.130000000000E-02
	Si97	Si	-2.543000000000E-01	1.073000000000E-01	1.650000000000E-02
	Si98	Si	2.543000000000E-01	-1.073000000000E-01	-4.835000000000E-01
	Si99	Si	-1.073000000000E-01	-3.616000000000E-01	1.650000000000E-02
	Si100	Si	3.616000000000E-01	2.543000000000E-01	1.650000000000E-02
	Si101	Si	-3.616000000000E-01	-2.543000000000E-01	-4.835000000000E-01
	Si102	Si	1.073000000000E-01	3.616000000000E-01	-4.835000000000E-01
	Si103	Si	3.616000000000E-01	1.073000000000E-01	1.650000000000E-02
	Si104	Si	-2.543000000000E-01	-3.616000000000E-01	1.650000000000E-02
	Si105	Si	-1.073000000000E-01	2.543000000000E-01	1.650000000000E-02
	Si106	Si	1.073000000000E-01	-2.543000000000E-01	-4.835000000000E-01
	Si107	Si	2.543000000000E-01	3.616000000000E-01	-4.835000000000E-01
	Si108	Si	-3.616000000000E-01	-1.073000000000E-01	-4.835000000000E-01
	Si109	Si	-3.332000000000E-01	1.872000000000E-01	1.581000000000E-01
	Si110	Si	3.332000000000E-01	-1.872000000000E-01	-3.419000000000E-01
	Si111	Si	-1.872000000000E-01	4.796000000000E-01	1.581000000000E-01
	Si112	Si	-4.796000000000E-01	3.332000000000E-01	1.581000000000E-01
	Si113	Si	4.796000000000E-01	-3.332000000000E-01	-3.419000000000E-01
	Si114	Si	1.872000000000E-01	-4.796000000000E-01	-3.419000000000E-01
	Si115	Si	-4.796000000000E-01	1.872000000000E-01	1.581000000000E-01
	Si116	Si	-3.332000000000E-01	4.796000000000E-01	1.581000000000E-01
	Si117	Si	-1.872000000000E-01	3.332000000000E-01	1.581000000000E-01
	Si118	Si	1.872000000000E-01	-3.332000000000E-01	-3.419000000000E-01
	Si119	Si	3.332000000000E-01	-4.796000000000E-01	-3.419000000000E-01
	Si120	Si	4.796000000000E-01	-1.872000000000E-01	-3.419000000000E-01
	Si121	Si	-3.604000000000E-01	-2.610000000000E-02	2.199000000000E-01
	Si122	Si	3.604000000000E-01	2.610000000000E-02	-2.801000000000E-01
	Si123	Si	2.610000000000E-02	-3.343000000000E-01	2.199000000000E-01
	Si124	Si	3.343000000000E-01	3.604000000000E-01	2.199000000000E-01
	Si125	Si	-3.343000000000E-01	-3.604000000000E-01	-2.801000000000E-01
	Si126	Si	-2.610000000000E-02	3.343000000000E-01	-2.801000000000E-01
	Si127	Si	3.343000000000E-01	-2.610000000000E-02	2.199000000000E-01
	Si128	Si	-3.604000000000E-01	-3.343000000000E-01	2.199000000000E-01
	Si129	Si	2.610000000000E-02	3.604000000000E-01	2.199000000000E-01
	Si130	Si	-2.610000000000E-02	-3.604000000000E-01	-2.801000000000E-01
	Si131	Si	3.604000000000E-01	3.343000000000E-01	-2.801000000000E-01
	Si132	Si	-3.343000000000E-01	2.610000000000E-02	-2.801000000000E-01
	Si133	Si	-3.863000000000E-01	7.870000000000E-02	4.335000000000E-01
	Si134	Si	3.863000000000E-01	-7.870000000000E-02	-6.650000000000E-02
	Si135	Si	-7.870000000000E-02	-4.650000000000E-01	4.335000000000E-01
	Si136	Si	4.650000000000E-01	3.863000000000E-01	4.335000000000E-01
	Si137	Si	-4.650000000000E-01	-3.863000000000E-01	-6.650000000000E-02
	Si138	Si	7.870000000000E-02	4.650000000000E-01	-6.650000000000E-02
	Si139	Si	4.650000000000E-01	7.870000000000E-02	4.335000000000E-01
	Si140	Si	-3.863000000000E-01	-4.650000000000E-01	4.335000000000E-01
	Si141	Si	-7.870000000000E-02	3.863000000000E-01	4.335000000000E-01
	Si142	Si	7.870000000000E-02	-3.863000000000E-01	-6.650000000000E-02
	Si143	Si	3.863000000000E-01	4.650000000000E-01	-6.650000000000E-02
	Si144	Si	-4.650000000000E-01	-7.870000000000E-02	-6.650000000000E-02
