data EWS
_chemical_name_common		'EWS'
_cell_length_a		12.54517584
_cell_length_b		12.54517584
_cell_length_c		17.97626000
_cell_angle_alpha		90.000000
_cell_angle_beta		90.000000
_cell_angle_gamma		101.344976
_space group_name_H-M_alt		'P 1'
_space_group_IT_number		1

loop_
	_atom_site_label
	_atom_site_type_symbol
	_atom_site_fract_x
	_atom_site_fract_y
	_atom_site_fract_z
	Si1	Si	-4.310200000000E-01	-2.679000000000E-01	4.303100000000E-01
	Si2	Si	-6.898000000000E-02	-2.321000000000E-01	-6.969000000000E-02
	Si3	Si	2.679000000000E-01	4.310200000000E-01	-4.303100000000E-01
	Si4	Si	2.321000000000E-01	6.898000000000E-02	6.969000000000E-02
	Si5	Si	4.310200000000E-01	2.679000000000E-01	-4.303100000000E-01
	Si6	Si	6.898000000000E-02	2.321000000000E-01	6.969000000000E-02
	Si7	Si	-2.679000000000E-01	-4.310200000000E-01	4.303100000000E-01
	Si8	Si	-2.321000000000E-01	-6.898000000000E-02	-6.969000000000E-02
	Si9	Si	3.070500000000E-01	-1.533700000000E-01	-3.973100000000E-01
	Si10	Si	1.929500000000E-01	-3.466300000000E-01	1.026900000000E-01
	Si11	Si	1.533700000000E-01	-3.070500000000E-01	3.973100000000E-01
	Si12	Si	3.466300000000E-01	-1.929500000000E-01	-1.026900000000E-01
	Si13	Si	-3.070500000000E-01	1.533700000000E-01	3.973100000000E-01
	Si14	Si	-1.929500000000E-01	3.466300000000E-01	-1.026900000000E-01
	Si15	Si	-1.533700000000E-01	3.070500000000E-01	-3.973100000000E-01
	Si16	Si	-3.466300000000E-01	1.929500000000E-01	1.026900000000E-01
	Si17	Si	3.833000000000E-01	3.454000000000E-02	-4.993600000000E-01
	Si18	Si	1.167000000000E-01	4.654600000000E-01	6.400000000000E-04
	Si19	Si	-3.454000000000E-02	-3.833000000000E-01	4.993600000000E-01
	Si20	Si	-4.654600000000E-01	-1.167000000000E-01	-6.400000000001E-04
	Si21	Si	-3.833000000000E-01	-3.454000000000E-02	4.993600000000E-01
	Si22	Si	-1.167000000000E-01	-4.654600000000E-01	-6.400000000001E-04
	Si23	Si	3.454000000000E-02	3.833000000000E-01	-4.993600000000E-01
	Si24	Si	4.654600000000E-01	1.167000000000E-01	6.400000000000E-04
	Si25	Si	3.029800000000E-01	-8.536000000000E-02	3.564400000000E-01
	Si26	Si	1.970200000000E-01	-4.146400000000E-01	-1.435600000000E-01
	Si27	Si	8.536000000000E-02	-3.029800000000E-01	-3.564400000000E-01
	Si28	Si	4.146400000000E-01	-1.970200000000E-01	1.435600000000E-01
	Si29	Si	-3.029800000000E-01	8.536000000000E-02	-3.564400000000E-01
	Si30	Si	-1.970200000000E-01	4.146400000000E-01	1.435600000000E-01
	Si31	Si	-8.536000000000E-02	3.029800000000E-01	3.564400000000E-01
	Si32	Si	-4.146400000000E-01	1.970200000000E-01	-1.435600000000E-01
	Si33	Si	-4.899300000000E-01	-1.604700000000E-01	2.934700000000E-01
	Si34	Si	-1.007000000000E-02	-3.395300000000E-01	-2.065300000000E-01
	Si35	Si	1.604700000000E-01	4.899300000000E-01	-2.934700000000E-01
	Si36	Si	3.395300000000E-01	1.007000000000E-02	2.065300000000E-01
	Si37	Si	4.899300000000E-01	1.604700000000E-01	-2.934700000000E-01
	Si38	Si	1.007000000000E-02	3.395300000000E-01	2.065300000000E-01
	Si39	Si	-1.604700000000E-01	-4.899300000000E-01	2.934700000000E-01
	Si40	Si	-3.395300000000E-01	-1.007000000000E-02	-2.065300000000E-01
	Si41	Si	-4.236200000000E-01	7.638000000000E-02	2.500000000000E-01
	Si42	Si	-7.638000000000E-02	4.236200000000E-01	-2.500000000000E-01
	Si43	Si	4.236200000000E-01	-7.638000000000E-02	-2.500000000000E-01
	Si44	Si	7.638000000000E-02	-4.236200000000E-01	2.500000000000E-01
	Si45	Si	3.427200000000E-01	-3.427200000000E-01	-5.000000000000E-01
	Si46	Si	1.572800000000E-01	-1.572800000000E-01	0.000000000000E+00
	Si47	Si	-3.427200000000E-01	3.427200000000E-01	-5.000000000000E-01
	Si48	Si	-1.572800000000E-01	1.572800000000E-01	0.000000000000E+00
	O49	O	-4.216100000000E-01	-2.280500000000E-01	3.449100000000E-01
	O50	O	-7.839000000000E-02	-2.719500000000E-01	-1.550900000000E-01
	O51	O	2.280500000000E-01	4.216100000000E-01	-3.449100000000E-01
	O52	O	2.719500000000E-01	7.839000000000E-02	1.550900000000E-01
	O53	O	4.216100000000E-01	2.280500000000E-01	-3.449100000000E-01
	O54	O	7.839000000000E-02	2.719500000000E-01	1.550900000000E-01
	O55	O	-2.280500000000E-01	-4.216100000000E-01	3.449100000000E-01
	O56	O	-2.719500000000E-01	-7.839000000000E-02	-1.550900000000E-01
	O57	O	-4.003100000000E-01	-1.630100000000E-01	4.834600000000E-01
	O58	O	-9.969000000000E-02	-3.369900000000E-01	-1.654000000000E-02
	O59	O	1.630100000000E-01	4.003100000000E-01	-4.834600000000E-01
	O60	O	3.369900000000E-01	9.969000000000E-02	1.654000000000E-02
	O61	O	4.003100000000E-01	1.630100000000E-01	-4.834600000000E-01
	O62	O	9.969000000000E-02	3.369900000000E-01	1.654000000000E-02
	O63	O	-1.630100000000E-01	-4.003100000000E-01	4.834600000000E-01
	O64	O	-3.369900000000E-01	-9.969000000000E-02	-1.654000000000E-02
	O65	O	4.472100000000E-01	-3.330300000000E-01	4.465900000000E-01
	O66	O	5.279000000000E-02	-1.669700000000E-01	-5.341000000000E-02
	O67	O	3.330300000000E-01	-4.472100000000E-01	-4.465900000000E-01
	O68	O	1.669700000000E-01	-5.279000000000E-02	5.341000000000E-02
	O69	O	-4.472100000000E-01	3.330300000000E-01	-4.465900000000E-01
	O70	O	-5.279000000000E-02	1.669700000000E-01	5.341000000000E-02
	O71	O	-3.330300000000E-01	4.472100000000E-01	4.465900000000E-01
	O72	O	-1.669700000000E-01	5.279000000000E-02	-5.341000000000E-02
	O73	O	-3.469100000000E-01	-3.469100000000E-01	4.458800000000E-01
	O74	O	-1.530900000000E-01	-1.530900000000E-01	-5.412000000000E-02
	O75	O	3.469100000000E-01	3.469100000000E-01	-4.458800000000E-01
	O76	O	1.530900000000E-01	1.530900000000E-01	5.412000000000E-02
	O77	O	2.318000000000E-01	-3.565800000000E-01	4.528200000000E-01
	O78	O	2.682000000000E-01	-1.434200000000E-01	-4.718000000000E-02
	O79	O	3.565800000000E-01	-2.318000000000E-01	-4.528200000000E-01
	O80	O	1.434200000000E-01	-2.682000000000E-01	4.718000000000E-02
	O81	O	-2.318000000000E-01	3.565800000000E-01	-4.528200000000E-01
	O82	O	-2.682000000000E-01	1.434200000000E-01	4.718000000000E-02
	O83	O	-3.565800000000E-01	2.318000000000E-01	4.528200000000E-01
	O84	O	-1.434200000000E-01	2.682000000000E-01	-4.718000000000E-02
	O85	O	3.144600000000E-01	-3.490000000000E-02	-4.338500000000E-01
	O86	O	1.855400000000E-01	-4.651000000000E-01	6.615000000000E-02
	O87	O	3.490000000000E-02	-3.144600000000E-01	4.338500000000E-01
	O88	O	4.651000000000E-01	-1.855400000000E-01	-6.615000000000E-02
	O89	O	-3.144600000000E-01	3.490000000000E-02	4.338500000000E-01
	O90	O	-1.855400000000E-01	4.651000000000E-01	-6.615000000000E-02
	O91	O	-3.490000000000E-02	3.144600000000E-01	-4.338500000000E-01
	O92	O	-4.651000000000E-01	1.855400000000E-01	6.615000000000E-02
	O93	O	1.812900000000E-01	-2.042300000000E-01	-3.808800000000E-01
	O94	O	3.187100000000E-01	-2.957700000000E-01	1.191200000000E-01
	O95	O	2.042300000000E-01	-1.812900000000E-01	3.808800000000E-01
	O96	O	2.957700000000E-01	-3.187100000000E-01	-1.191200000000E-01
	O97	O	-1.812900000000E-01	2.042300000000E-01	3.808800000000E-01
	O98	O	-3.187100000000E-01	2.957700000000E-01	-1.191200000000E-01
	O99	O	-2.042300000000E-01	1.812900000000E-01	-3.808800000000E-01
	O100	O	-2.957700000000E-01	3.187100000000E-01	1.191200000000E-01
	O101	O	3.768900000000E-01	-1.469700000000E-01	-3.217800000000E-01
	O102	O	1.231100000000E-01	-3.530300000000E-01	1.782200000000E-01
	O103	O	1.469700000000E-01	-3.768900000000E-01	3.217800000000E-01
	O104	O	3.530300000000E-01	-1.231100000000E-01	-1.782200000000E-01
	O105	O	-3.768900000000E-01	1.469700000000E-01	3.217800000000E-01
	O106	O	-1.231100000000E-01	3.530300000000E-01	-1.782200000000E-01
	O107	O	-1.469700000000E-01	3.768900000000E-01	-3.217800000000E-01
	O108	O	-3.530300000000E-01	1.231100000000E-01	1.782200000000E-01
	O109	O	4.520100000000E-01	8.475000000000E-02	2.340700000000E-01
	O110	O	4.799000000000E-02	4.152500000000E-01	-2.659300000000E-01
	O111	O	-8.475000000000E-02	-4.520100000000E-01	-2.340700000000E-01
	O112	O	-4.152500000000E-01	-4.799000000000E-02	2.659300000000E-01
	O113	O	-4.520100000000E-01	-8.475000000000E-02	-2.340700000000E-01
	O114	O	-4.799000000000E-02	-4.152500000000E-01	2.659300000000E-01
	O115	O	8.475000000000E-02	4.520100000000E-01	2.340700000000E-01
	O116	O	4.152500000000E-01	4.799000000000E-02	-2.659300000000E-01
	O117	O	3.254600000000E-01	4.780000000000E-03	4.213000000000E-01
	O118	O	1.745400000000E-01	4.952200000000E-01	-7.870000000000E-02
	O119	O	-4.780000000000E-03	-3.254600000000E-01	-4.213000000000E-01
	O120	O	-4.952200000000E-01	-1.745400000000E-01	7.870000000000E-02
	O121	O	-3.254600000000E-01	-4.780000000000E-03	-4.213000000000E-01
	O122	O	-1.745400000000E-01	-4.952200000000E-01	7.870000000000E-02
	O123	O	4.780000000000E-03	3.254600000000E-01	4.213000000000E-01
	O124	O	4.952200000000E-01	1.745400000000E-01	-7.870000000000E-02
	O125	O	-5.000000000000E-01	-1.160993022033E-17	-5.000000000000E-01
	O126	O	2.176443595510E-16	-5.000000000000E-01	0.000000000000E+00
	O127	O	1.794806660688E-17	-5.000000000000E-01	-5.000000000000E-01
	O128	O	-5.000000000000E-01	-1.160993022033E-17	0.000000000000E+00
	O129	O	2.704600000000E-01	-3.334000000000E-02	2.797700000000E-01
	O130	O	2.295400000000E-01	-4.666600000000E-01	-2.202300000000E-01
	O131	O	3.334000000000E-02	-2.704600000000E-01	-2.797700000000E-01
	O132	O	4.666600000000E-01	-2.295400000000E-01	2.202300000000E-01
	O133	O	-2.704600000000E-01	3.334000000000E-02	-2.797700000000E-01
	O134	O	-2.295400000000E-01	4.666600000000E-01	2.202300000000E-01
	O135	O	-3.334000000000E-02	2.704600000000E-01	2.797700000000E-01
	O136	O	-4.666600000000E-01	2.295400000000E-01	-2.202300000000E-01
	O137	O	4.099300000000E-01	-1.352100000000E-01	3.418200000000E-01
	O138	O	9.007000000000E-02	-3.647900000000E-01	-1.581800000000E-01
	O139	O	1.352100000000E-01	-4.099300000000E-01	-3.418200000000E-01
	O140	O	3.647900000000E-01	-9.007000000000E-02	1.581800000000E-01
	O141	O	-4.099300000000E-01	1.352100000000E-01	-3.418200000000E-01
	O142	O	-9.007000000000E-02	3.647900000000E-01	1.581800000000E-01
	O143	O	-1.352100000000E-01	4.099300000000E-01	3.418200000000E-01
	O144	O	-3.647900000000E-01	9.007000000000E-02	-1.581800000000E-01
