data EZT
_chemical_name_common		'EZT'
_cell_length_a		13.54663927
_cell_length_b		13.54663927
_cell_length_c		13.54663927
_cell_angle_alpha		135.618024
_cell_angle_beta		124.772358
_cell_angle_gamma		73.440549
_space group_name_H-M_alt		'P 1'
_space_group_IT_number		1

loop_
	_atom_site_label
	_atom_site_type_symbol
	_atom_site_fract_x
	_atom_site_fract_y
	_atom_site_fract_z
	O1	O	-4.951000000000E-01	2.472000000000E-01	-3.563000000000E-01
	O2	O	1.035000000000E-01	-1.388000000000E-01	-1.437000000000E-01
	O3	O	4.951000000000E-01	1.388000000000E-01	-2.577000000000E-01
	O4	O	-1.035000000000E-01	-2.472000000000E-01	-2.423000000000E-01
	O5	O	4.951000000000E-01	-2.472000000000E-01	3.563000000000E-01
	O6	O	-1.035000000000E-01	1.388000000000E-01	1.437000000000E-01
	O7	O	-4.951000000000E-01	-1.388000000000E-01	2.577000000000E-01
	O8	O	1.035000000000E-01	2.472000000000E-01	2.423000000000E-01
	O9	O	-4.906000000000E-01	-4.973000000000E-01	-2.507000000000E-01
	O10	O	2.534000000000E-01	-2.399000000000E-01	-2.493000000000E-01
	O11	O	4.906000000000E-01	2.399000000000E-01	-6.700000000000E-03
	O12	O	-2.534000000000E-01	4.973000000000E-01	-4.933000000000E-01
	O13	O	4.906000000000E-01	4.973000000000E-01	2.507000000000E-01
	O14	O	-2.534000000000E-01	2.399000000000E-01	2.493000000000E-01
	O15	O	-4.906000000000E-01	-2.399000000000E-01	6.700000000000E-03
	O16	O	2.534000000000E-01	-4.973000000000E-01	4.933000000000E-01
	O17	O	-4.293000000000E-01	2.965000000000E-01	-4.688000000000E-01
	O18	O	2.653000000000E-01	3.950000000000E-02	-3.120000000000E-02
	O19	O	4.293000000000E-01	-3.950000000000E-02	-2.742000000000E-01
	O20	O	-2.653000000000E-01	-2.965000000000E-01	-2.258000000000E-01
	O21	O	4.293000000000E-01	-2.965000000000E-01	4.688000000000E-01
	O22	O	-2.653000000000E-01	-3.950000000000E-02	3.120000000000E-02
	O23	O	-4.293000000000E-01	3.950000000000E-02	2.742000000000E-01
	O24	O	2.653000000000E-01	2.965000000000E-01	2.258000000000E-01
	O25	O	3.405000000000E-01	2.795000000000E-01	4.390000000000E-01
	O26	O	3.405000000000E-01	-9.850000000000E-02	6.100000000000E-02
	O27	O	-3.405000000000E-01	9.850000000000E-02	-6.100000000000E-02
	O28	O	-3.405000000000E-01	-2.795000000000E-01	-4.390000000000E-01
	O29	O	7.110000000000E-02	-3.707000000000E-01	4.418000000000E-01
	O30	O	-3.125000000000E-01	-3.707000000000E-01	5.820000000000E-02
	O31	O	-7.110000000000E-02	3.707000000000E-01	-4.418000000000E-01
	O32	O	3.125000000000E-01	3.707000000000E-01	-5.820000000000E-02
	O33	O	2.867000000000E-01	-2.702000000000E-01	-4.431000000000E-01
	O34	O	-3.271000000000E-01	-2.702000000000E-01	-5.690000000000E-02
	O35	O	-2.867000000000E-01	2.702000000000E-01	4.431000000000E-01
	O36	O	3.271000000000E-01	2.702000000000E-01	5.690000000000E-02
	O37	O	-4.751000000000E-01	-2.251000000000E-01	-2.500000000000E-01
	O38	O	4.751000000000E-01	2.251000000000E-01	2.500000000000E-01
	O39	O	3.788000000000E-01	-3.988000000000E-01	3.420000000000E-02
	O40	O	6.700000000000E-02	3.446000000000E-01	4.658000000000E-01
	O41	O	-3.788000000000E-01	-3.446000000000E-01	2.224000000000E-01
	O42	O	-6.700000000000E-02	3.988000000000E-01	2.776000000000E-01
	O43	O	-3.788000000000E-01	3.988000000000E-01	-3.420000000000E-02
	O44	O	-6.700000000000E-02	-3.446000000000E-01	-4.658000000000E-01
	O45	O	3.788000000000E-01	3.446000000000E-01	-2.224000000000E-01
	O46	O	6.700000000000E-02	-3.988000000000E-01	-2.776000000000E-01
	O47	O	1.679000000000E-01	4.179000000000E-01	-2.500000000000E-01
	O48	O	-1.679000000000E-01	-4.179000000000E-01	2.500000000000E-01
	Si49	Si	4.816000000000E-01	3.312000000000E-01	-4.088000000000E-01
	Si50	Si	2.400000000000E-01	-1.096000000000E-01	-9.120000000000E-02
	Si51	Si	-4.816000000000E-01	1.096000000000E-01	-1.504000000000E-01
	Si52	Si	-2.400000000000E-01	-3.312000000000E-01	-3.496000000000E-01
	Si53	Si	-4.816000000000E-01	-3.312000000000E-01	4.088000000000E-01
	Si54	Si	-2.400000000000E-01	1.096000000000E-01	9.120000000000E-02
	Si55	Si	4.816000000000E-01	-1.096000000000E-01	1.504000000000E-01
	Si56	Si	2.400000000000E-01	3.312000000000E-01	3.496000000000E-01
	Si57	Si	2.174000000000E-01	-3.442000000000E-01	-4.384000000000E-01
	Si58	Si	-4.058000000000E-01	-3.442000000000E-01	-6.160000000000E-02
	Si59	Si	-2.174000000000E-01	3.442000000000E-01	4.384000000000E-01
	Si60	Si	4.058000000000E-01	3.442000000000E-01	6.160000000000E-02
	Si61	Si	-3.331000000000E-01	-2.075000000000E-01	-1.256000000000E-01
	Si62	Si	4.181000000000E-01	-2.075000000000E-01	-3.744000000000E-01
	Si63	Si	3.331000000000E-01	2.075000000000E-01	1.256000000000E-01
	Si64	Si	-4.181000000000E-01	2.075000000000E-01	3.744000000000E-01
	Si65	Si	3.090000000000E-01	4.340000000000E-01	-1.250000000000E-01
	Si66	Si	5.900000000000E-02	4.340000000000E-01	-3.750000000000E-01
	Si67	Si	-3.090000000000E-01	-4.340000000000E-01	1.250000000000E-01
	Si68	Si	-5.900000000000E-02	-4.340000000000E-01	3.750000000000E-01
	Si69	Si	-2.730279102972E-17	-2.818000000000E-01	-2.818000000000E-01
	Si70	Si	-5.000000000000E-01	2.818000000000E-01	-2.182000000000E-01
	Si71	Si	-1.337198771401E-18	2.818000000000E-01	2.818000000000E-01
	Si72	Si	5.000000000000E-01	-2.818000000000E-01	2.182000000000E-01
