data FAU
_chemical_name_common		'FAU'
_cell_length_a		17.21451459
_cell_length_b		17.21451459
_cell_length_c		17.21451459
_cell_angle_alpha		60.000000
_cell_angle_beta		60.000000
_cell_angle_gamma		60.000000
_space group_name_H-M_alt		'P 1'
_space_group_IT_number		1

loop_
	_atom_site_label
	_atom_site_type_symbol
	_atom_site_fract_x
	_atom_site_fract_y
	_atom_site_fract_z
	O1	O	2.084000000000E-01	-2.084000000000E-01	1.327595394656E-17
	O2	O	-2.084000000000E-01	2.084000000000E-01	-5.000000000000E-01
	O3	O	-5.000000000000E-01	3.185209680076E-17	-2.084000000000E-01
	O4	O	9.821960723744E-17	-5.000000000000E-01	2.084000000000E-01
	O5	O	-3.057029192010E-17	2.084000000000E-01	-2.084000000000E-01
	O6	O	-2.084000000000E-01	-2.494085931116E-17	2.084000000000E-01
	O7	O	2.084000000000E-01	-8.242895907182E-18	-5.000000000000E-01
	O8	O	2.084000000000E-01	-5.000000000000E-01	-2.084000000000E-01
	O9	O	-5.000000000000E-01	-2.084000000000E-01	2.084000000000E-01
	O10	O	-1.106307150334E-17	-2.084000000000E-01	-5.000000000000E-01
	O11	O	-2.084000000000E-01	-5.000000000000E-01	1.782290952363E-17
	O12	O	-5.000000000000E-01	2.084000000000E-01	-3.446556009900E-17
	O13	O	-2.084000000000E-01	2.084000000000E-01	-1.327595394656E-17
	O14	O	2.084000000000E-01	-2.084000000000E-01	-5.000000000000E-01
	O15	O	-5.000000000000E-01	-2.365905443050E-17	2.084000000000E-01
	O16	O	3.185209680076E-17	-5.000000000000E-01	-2.084000000000E-01
	O17	O	3.057029192010E-17	-2.084000000000E-01	2.084000000000E-01
	O18	O	2.084000000000E-01	2.494085931116E-17	-2.084000000000E-01
	O19	O	-2.084000000000E-01	2.514211231739E-17	-5.000000000000E-01
	O20	O	-2.084000000000E-01	-5.000000000000E-01	2.084000000000E-01
	O21	O	-5.000000000000E-01	2.084000000000E-01	-2.084000000000E-01
	O22	O	1.082075861580E-16	2.084000000000E-01	-5.000000000000E-01
	O23	O	2.084000000000E-01	-5.000000000000E-01	-3.446556009900E-17
	O24	O	-5.000000000000E-01	-2.084000000000E-01	-1.483057886893E-18
	O25	O	1.855000000000E-01	-3.310000000000E-02	-3.310000000000E-02
	O26	O	-3.310000000000E-02	1.855000000000E-01	3.807000000000E-01
	O27	O	3.807000000000E-01	-3.310000000000E-02	-3.310000000000E-02
	O28	O	-3.310000000000E-02	3.807000000000E-01	1.855000000000E-01
	O29	O	-3.310000000000E-02	1.855000000000E-01	-3.310000000000E-02
	O30	O	-3.310000000000E-02	-3.310000000000E-02	1.855000000000E-01
	O31	O	1.855000000000E-01	-3.310000000000E-02	3.807000000000E-01
	O32	O	1.855000000000E-01	3.807000000000E-01	-3.310000000000E-02
	O33	O	3.807000000000E-01	-3.310000000000E-02	1.855000000000E-01
	O34	O	-3.310000000000E-02	-3.310000000000E-02	3.807000000000E-01
	O35	O	-3.310000000000E-02	3.807000000000E-01	-3.310000000000E-02
	O36	O	3.807000000000E-01	1.855000000000E-01	-3.310000000000E-02
	O37	O	3.310000000000E-02	-1.855000000000E-01	3.310000000000E-02
	O38	O	-1.855000000000E-01	3.310000000000E-02	-3.807000000000E-01
	O39	O	3.310000000000E-02	-3.807000000000E-01	3.310000000000E-02
	O40	O	-3.807000000000E-01	3.310000000000E-02	-1.855000000000E-01
	O41	O	-1.855000000000E-01	3.310000000000E-02	3.310000000000E-02
	O42	O	3.310000000000E-02	3.310000000000E-02	-1.855000000000E-01
	O43	O	3.310000000000E-02	-1.855000000000E-01	-3.807000000000E-01
	O44	O	-3.807000000000E-01	-1.855000000000E-01	3.310000000000E-02
	O45	O	3.310000000000E-02	-3.807000000000E-01	-1.855000000000E-01
	O46	O	3.310000000000E-02	3.310000000000E-02	-3.807000000000E-01
	O47	O	-3.807000000000E-01	3.310000000000E-02	3.310000000000E-02
	O48	O	-1.855000000000E-01	-3.807000000000E-01	3.310000000000E-02
	O49	O	1.429000000000E-01	-1.497000000000E-01	1.429000000000E-01
	O50	O	-1.497000000000E-01	1.429000000000E-01	3.639000000000E-01
	O51	O	3.639000000000E-01	1.429000000000E-01	-1.497000000000E-01
	O52	O	1.429000000000E-01	3.639000000000E-01	1.429000000000E-01
	O53	O	1.429000000000E-01	1.429000000000E-01	-1.497000000000E-01
	O54	O	-1.497000000000E-01	1.429000000000E-01	1.429000000000E-01
	O55	O	1.429000000000E-01	1.429000000000E-01	3.639000000000E-01
	O56	O	1.429000000000E-01	3.639000000000E-01	-1.497000000000E-01
	O57	O	3.639000000000E-01	-1.497000000000E-01	1.429000000000E-01
	O58	O	1.429000000000E-01	-1.497000000000E-01	3.639000000000E-01
	O59	O	-1.497000000000E-01	3.639000000000E-01	1.429000000000E-01
	O60	O	3.639000000000E-01	1.429000000000E-01	1.429000000000E-01
	O61	O	1.497000000000E-01	-1.429000000000E-01	-1.429000000000E-01
	O62	O	-1.429000000000E-01	1.497000000000E-01	-3.639000000000E-01
	O63	O	-1.429000000000E-01	-3.639000000000E-01	1.497000000000E-01
	O64	O	-3.639000000000E-01	-1.429000000000E-01	-1.429000000000E-01
	O65	O	-1.429000000000E-01	-1.429000000000E-01	1.497000000000E-01
	O66	O	-1.429000000000E-01	1.497000000000E-01	-1.429000000000E-01
	O67	O	-1.429000000000E-01	-1.429000000000E-01	-3.639000000000E-01
	O68	O	-3.639000000000E-01	-1.429000000000E-01	1.497000000000E-01
	O69	O	1.497000000000E-01	-3.639000000000E-01	-1.429000000000E-01
	O70	O	1.497000000000E-01	-1.429000000000E-01	-3.639000000000E-01
	O71	O	-3.639000000000E-01	1.497000000000E-01	-1.429000000000E-01
	O72	O	-1.429000000000E-01	-3.639000000000E-01	-1.429000000000E-01
	O73	O	3.217000000000E-01	-1.757000000000E-01	3.230000000000E-02
	O74	O	-1.757000000000E-01	3.217000000000E-01	3.217000000000E-01
	O75	O	3.217000000000E-01	3.230000000000E-02	-1.757000000000E-01
	O76	O	3.230000000000E-02	3.217000000000E-01	3.217000000000E-01
	O77	O	3.230000000000E-02	3.217000000000E-01	-1.757000000000E-01
	O78	O	-1.757000000000E-01	3.230000000000E-02	3.217000000000E-01
	O79	O	3.217000000000E-01	3.230000000000E-02	3.217000000000E-01
	O80	O	3.217000000000E-01	3.217000000000E-01	-1.757000000000E-01
	O81	O	3.217000000000E-01	-1.757000000000E-01	3.217000000000E-01
	O82	O	3.230000000000E-02	-1.757000000000E-01	3.217000000000E-01
	O83	O	-1.757000000000E-01	3.217000000000E-01	3.230000000000E-02
	O84	O	3.217000000000E-01	3.217000000000E-01	3.230000000000E-02
	O85	O	1.757000000000E-01	-3.217000000000E-01	-3.230000000000E-02
	O86	O	-3.217000000000E-01	1.757000000000E-01	-3.217000000000E-01
	O87	O	-3.230000000000E-02	-3.217000000000E-01	1.757000000000E-01
	O88	O	-3.217000000000E-01	-3.230000000000E-02	-3.217000000000E-01
	O89	O	-3.217000000000E-01	-3.230000000000E-02	1.757000000000E-01
	O90	O	-3.230000000000E-02	1.757000000000E-01	-3.217000000000E-01
	O91	O	-3.230000000000E-02	-3.217000000000E-01	-3.217000000000E-01
	O92	O	-3.217000000000E-01	-3.217000000000E-01	1.757000000000E-01
	O93	O	1.757000000000E-01	-3.217000000000E-01	-3.217000000000E-01
	O94	O	1.757000000000E-01	-3.230000000000E-02	-3.217000000000E-01
	O95	O	-3.217000000000E-01	1.757000000000E-01	-3.230000000000E-02
	O96	O	-3.217000000000E-01	-3.217000000000E-01	-3.230000000000E-02
	Si97	Si	2.146000000000E-01	-1.418000000000E-01	3.560000000000E-02
	Si98	Si	-1.418000000000E-01	2.146000000000E-01	3.916000000000E-01
	Si99	Si	3.916000000000E-01	3.560000000000E-02	-1.418000000000E-01
	Si100	Si	3.560000000000E-02	3.916000000000E-01	2.146000000000E-01
	Si101	Si	3.560000000000E-02	2.146000000000E-01	-1.418000000000E-01
	Si102	Si	-1.418000000000E-01	3.560000000000E-02	2.146000000000E-01
	Si103	Si	2.146000000000E-01	3.560000000000E-02	3.916000000000E-01
	Si104	Si	2.146000000000E-01	3.916000000000E-01	-1.418000000000E-01
	Si105	Si	3.916000000000E-01	-1.418000000000E-01	2.146000000000E-01
	Si106	Si	3.560000000000E-02	-1.418000000000E-01	3.916000000000E-01
	Si107	Si	-1.418000000000E-01	3.916000000000E-01	3.560000000000E-02
	Si108	Si	3.916000000000E-01	2.146000000000E-01	3.560000000000E-02
	Si109	Si	1.418000000000E-01	-2.146000000000E-01	-3.560000000000E-02
	Si110	Si	-2.146000000000E-01	1.418000000000E-01	-3.916000000000E-01
	Si111	Si	-3.560000000000E-02	-3.916000000000E-01	1.418000000000E-01
	Si112	Si	-3.916000000000E-01	-3.560000000000E-02	-2.146000000000E-01
	Si113	Si	-2.146000000000E-01	-3.560000000000E-02	1.418000000000E-01
	Si114	Si	-3.560000000000E-02	1.418000000000E-01	-2.146000000000E-01
	Si115	Si	-3.560000000000E-02	-2.146000000000E-01	-3.916000000000E-01
	Si116	Si	-3.916000000000E-01	-2.146000000000E-01	1.418000000000E-01
	Si117	Si	1.418000000000E-01	-3.916000000000E-01	-2.146000000000E-01
	Si118	Si	1.418000000000E-01	-3.560000000000E-02	-3.916000000000E-01
	Si119	Si	-3.916000000000E-01	1.418000000000E-01	-3.560000000000E-02
	Si120	Si	-2.146000000000E-01	-3.916000000000E-01	-3.560000000000E-02
	Si121	Si	-2.146000000000E-01	1.418000000000E-01	-3.560000000000E-02
	Si122	Si	1.418000000000E-01	-2.146000000000E-01	-3.916000000000E-01
	Si123	Si	-3.916000000000E-01	-3.560000000000E-02	1.418000000000E-01
	Si124	Si	-3.560000000000E-02	-3.916000000000E-01	-2.146000000000E-01
	Si125	Si	-3.560000000000E-02	-2.146000000000E-01	1.418000000000E-01
	Si126	Si	1.418000000000E-01	-3.560000000000E-02	-2.146000000000E-01
	Si127	Si	-2.146000000000E-01	-3.560000000000E-02	-3.916000000000E-01
	Si128	Si	-2.146000000000E-01	-3.916000000000E-01	1.418000000000E-01
	Si129	Si	-3.916000000000E-01	1.418000000000E-01	-2.146000000000E-01
	Si130	Si	-3.560000000000E-02	1.418000000000E-01	-3.916000000000E-01
	Si131	Si	1.418000000000E-01	-3.916000000000E-01	-3.560000000000E-02
	Si132	Si	-3.916000000000E-01	-2.146000000000E-01	-3.560000000000E-02
	Si133	Si	-1.418000000000E-01	2.146000000000E-01	3.560000000000E-02
	Si134	Si	2.146000000000E-01	-1.418000000000E-01	3.916000000000E-01
	Si135	Si	3.560000000000E-02	3.916000000000E-01	-1.418000000000E-01
	Si136	Si	3.916000000000E-01	3.560000000000E-02	2.146000000000E-01
	Si137	Si	2.146000000000E-01	3.560000000000E-02	-1.418000000000E-01
	Si138	Si	3.560000000000E-02	-1.418000000000E-01	2.146000000000E-01
	Si139	Si	3.560000000000E-02	2.146000000000E-01	3.916000000000E-01
	Si140	Si	3.916000000000E-01	2.146000000000E-01	-1.418000000000E-01
	Si141	Si	-1.418000000000E-01	3.916000000000E-01	2.146000000000E-01
	Si142	Si	-1.418000000000E-01	3.560000000000E-02	3.916000000000E-01
	Si143	Si	3.916000000000E-01	-1.418000000000E-01	3.560000000000E-02
	Si144	Si	2.146000000000E-01	3.916000000000E-01	3.560000000000E-02
