data FER
_chemical_name_common		'FER'
_cell_length_a		12.48125408
_cell_length_b		24.96250817
_cell_length_c		12.48125408
_cell_angle_alpha		80.742656
_cell_angle_beta		110.083515
_cell_angle_gamma		144.833281
_space group_name_H-M_alt		'P 1'
_space_group_IT_number		1

loop_
	_atom_site_label
	_atom_site_type_symbol
	_atom_site_fract_x
	_atom_site_fract_y
	_atom_site_fract_z
	O1	O	3.419000000000E-01	2.851000000000E-01	4.119000000000E-01
	O2	O	1.583000000000E-01	-3.500000000000E-02	-4.119000000000E-01
	O3	O	-3.419000000000E-01	3.500000000000E-02	2.283000000000E-01
	O4	O	-1.583000000000E-01	-2.851000000000E-01	-2.283000000000E-01
	O5	O	-3.419000000000E-01	-2.851000000000E-01	-4.119000000000E-01
	O6	O	-1.583000000000E-01	3.500000000000E-02	4.119000000000E-01
	O7	O	3.419000000000E-01	-3.500000000000E-02	-2.283000000000E-01
	O8	O	1.583000000000E-01	2.851000000000E-01	2.283000000000E-01
	O9	O	-4.250000000000E-01	-1.447500000000E-01	-3.659000000000E-01
	O10	O	7.640000000000E-02	-2.955000000000E-02	3.659000000000E-01
	O11	O	4.250000000000E-01	2.955000000000E-02	1.355000000000E-01
	O12	O	-7.640000000000E-02	1.447500000000E-01	-1.355000000000E-01
	O13	O	4.250000000000E-01	1.447500000000E-01	3.659000000000E-01
	O14	O	-7.640000000000E-02	2.955000000000E-02	-3.659000000000E-01
	O15	O	-4.250000000000E-01	-2.955000000000E-02	-1.355000000000E-01
	O16	O	7.640000000000E-02	-1.447500000000E-01	1.355000000000E-01
	O17	O	2.162000000000E-01	-3.285500000000E-01	-4.409000000000E-01
	O18	O	-2.162000000000E-01	-1.714500000000E-01	4.409000000000E-01
	O19	O	-2.162000000000E-01	-3.285500000000E-01	1.267000000000E-01
	O20	O	2.162000000000E-01	-1.714500000000E-01	-1.267000000000E-01
	O21	O	5.000000000000E-01	2.500000000000E-01	5.000000000000E-01
	O22	O	-1.638397427698E-17	-3.291253353988E-17	5.000000000000E-01
	O23	O	-5.000000000000E-01	1.903474573207E-17	-7.004408813824E-17
	O24	O	1.638397427698E-17	2.500000000000E-01	5.346349848928E-17
	O25	O	9.180000000000E-02	5.315000000000E-02	1.981000000000E-01
	O26	O	-9.180000000000E-02	-5.315000000000E-02	-1.981000000000E-01
	O27	O	-9.180000000000E-02	5.315000000000E-02	1.450000000000E-02
	O28	O	9.180000000000E-02	-5.315000000000E-02	-1.450000000000E-02
	O29	O	2.094000000000E-01	-2.000945244753E-17	2.094000000000E-01
	O30	O	-2.094000000000E-01	7.652638465799E-18	-2.094000000000E-01
	O31	O	1.743000000000E-01	1.892000000000E-01	2.041000000000E-01
	O32	O	1.743000000000E-01	-1.490000000000E-02	-2.041000000000E-01
	O33	O	-1.743000000000E-01	1.490000000000E-02	2.041000000000E-01
	O34	O	-1.743000000000E-01	-1.892000000000E-01	-2.041000000000E-01
	O35	O	-5.000000000000E-01	-1.235500000000E-01	2.529000000000E-01
	O36	O	-5.000000000000E-01	-3.764500000000E-01	-2.529000000000E-01
	Si37	Si	4.082000000000E-01	-2.346000000000E-01	-4.738000000000E-01
	Si38	Si	4.600000000000E-03	-5.900000000000E-02	4.738000000000E-01
	Si39	Si	-4.082000000000E-01	5.900000000000E-02	1.226000000000E-01
	Si40	Si	-4.600000000000E-03	2.346000000000E-01	-1.226000000000E-01
	Si41	Si	-4.082000000000E-01	2.346000000000E-01	4.738000000000E-01
	Si42	Si	-4.600000000000E-03	5.900000000000E-02	-4.738000000000E-01
	Si43	Si	4.082000000000E-01	-5.900000000000E-02	-1.226000000000E-01
	Si44	Si	4.600000000000E-03	-2.346000000000E-01	1.226000000000E-01
	Si45	Si	2.004000000000E-01	4.215000000000E-02	2.847000000000E-01
	Si46	Si	-2.004000000000E-01	-4.215000000000E-02	-2.847000000000E-01
	Si47	Si	-2.004000000000E-01	4.215000000000E-02	-1.161000000000E-01
	Si48	Si	2.004000000000E-01	-4.215000000000E-02	1.161000000000E-01
	Si49	Si	2.935000000000E-01	2.839000000000E-01	2.743000000000E-01
	Si50	Si	2.935000000000E-01	9.600000000000E-03	-2.743000000000E-01
	Si51	Si	-2.935000000000E-01	-9.600000000000E-03	2.743000000000E-01
	Si52	Si	-2.935000000000E-01	-2.839000000000E-01	-2.743000000000E-01
	Si53	Si	-4.451180221141E-18	7.765000000000E-02	1.553000000000E-01
	Si54	Si	-1.282770986382E-17	-7.765000000000E-02	-1.553000000000E-01
	O55	O	-7.640000000000E-02	-4.704500000000E-01	-3.659000000000E-01
	O56	O	9.180000000000E-02	4.468500000000E-01	-1.450000000000E-02
	O57	O	-1.583000000000E-01	2.149000000000E-01	-2.283000000000E-01
	O58	O	2.094000000000E-01	-5.000000000000E-01	2.094000000000E-01
	O59	O	-4.250000000000E-01	4.704500000000E-01	-1.355000000000E-01
	O60	O	-2.094000000000E-01	-5.000000000000E-01	-2.094000000000E-01
	O61	O	1.583000000000E-01	-2.149000000000E-01	2.283000000000E-01
	O62	O	1.743000000000E-01	-3.108000000000E-01	2.041000000000E-01
	O63	O	7.640000000000E-02	3.552500000000E-01	1.355000000000E-01
	O64	O	1.743000000000E-01	4.851000000000E-01	-2.041000000000E-01
	O65	O	3.419000000000E-01	-2.149000000000E-01	4.119000000000E-01
	O66	O	-1.743000000000E-01	-4.851000000000E-01	2.041000000000E-01
	O67	O	2.162000000000E-01	1.714500000000E-01	-4.409000000000E-01
	O68	O	-1.743000000000E-01	3.108000000000E-01	-2.041000000000E-01
	O69	O	-4.250000000000E-01	3.552500000000E-01	-3.659000000000E-01
	O70	O	5.000000000000E-01	3.764500000000E-01	2.529000000000E-01
	O71	O	-2.162000000000E-01	3.285500000000E-01	4.409000000000E-01
	O72	O	5.000000000000E-01	1.235500000000E-01	-2.529000000000E-01
	O73	O	-3.419000000000E-01	2.149000000000E-01	-4.119000000000E-01
	Si74	Si	4.082000000000E-01	2.654000000000E-01	-4.738000000000E-01
	O75	O	-2.162000000000E-01	1.714500000000E-01	1.267000000000E-01
	Si76	Si	4.600000000000E-03	4.410000000000E-01	4.738000000000E-01
	O77	O	7.640000000000E-02	4.704500000000E-01	3.659000000000E-01
	Si78	Si	-4.082000000000E-01	-4.410000000000E-01	1.226000000000E-01
	O79	O	2.162000000000E-01	3.285500000000E-01	-1.267000000000E-01
	Si80	Si	-4.600000000000E-03	-2.654000000000E-01	-1.226000000000E-01
	O81	O	-3.419000000000E-01	-4.650000000000E-01	2.283000000000E-01
	Si82	Si	-4.082000000000E-01	-2.654000000000E-01	4.738000000000E-01
	O83	O	-5.000000000000E-01	-2.500000000000E-01	5.000000000000E-01
	Si84	Si	-4.600000000000E-03	-4.410000000000E-01	-4.738000000000E-01
	O85	O	4.250000000000E-01	-4.704500000000E-01	1.355000000000E-01
	Si86	Si	4.082000000000E-01	4.410000000000E-01	-1.226000000000E-01
	O87	O	-4.253482747638E-17	-5.000000000000E-01	-5.000000000000E-01
	Si88	Si	4.600000000000E-03	2.654000000000E-01	1.226000000000E-01
	O89	O	-1.583000000000E-01	-4.650000000000E-01	4.119000000000E-01
	Si90	Si	2.004000000000E-01	-4.578500000000E-01	2.847000000000E-01
	O91	O	5.000000000000E-01	-5.000000000000E-01	9.239406007157E-17
	Si92	Si	-2.004000000000E-01	4.578500000000E-01	-2.847000000000E-01
	O93	O	-7.640000000000E-02	-3.552500000000E-01	-1.355000000000E-01
	Si94	Si	-2.004000000000E-01	-4.578500000000E-01	-1.161000000000E-01
	O95	O	2.538621093963E-16	-2.500000000000E-01	4.511801097221E-17
	Si96	Si	2.004000000000E-01	4.578500000000E-01	1.161000000000E-01
	O97	O	1.583000000000E-01	4.650000000000E-01	-4.119000000000E-01
	Si98	Si	2.935000000000E-01	-2.161000000000E-01	2.743000000000E-01
	O99	O	9.180000000000E-02	-4.468500000000E-01	1.981000000000E-01
	Si100	Si	2.935000000000E-01	-4.904000000000E-01	-2.743000000000E-01
	O101	O	4.250000000000E-01	-3.552500000000E-01	3.659000000000E-01
	Si102	Si	-2.935000000000E-01	4.904000000000E-01	2.743000000000E-01
	O103	O	-9.180000000000E-02	4.468500000000E-01	-1.981000000000E-01
	Si104	Si	-2.935000000000E-01	2.161000000000E-01	-2.743000000000E-01
	O105	O	3.419000000000E-01	4.650000000000E-01	-2.283000000000E-01
	Si106	Si	3.207448619662E-16	-4.223500000000E-01	1.553000000000E-01
	O107	O	-9.180000000000E-02	-4.468500000000E-01	1.450000000000E-02
	Si108	Si	-1.960919574153E-16	4.223500000000E-01	-1.553000000000E-01
