data GON
_chemical_name_common		'GON'
_cell_length_a		26.07075421
_cell_length_b		13.03537710
_cell_length_c		5.08000000
_cell_angle_alpha		90.000000
_cell_angle_beta		90.000000
_cell_angle_gamma		78.527786
_space group_name_H-M_alt		'P 1'
_space_group_IT_number		1

loop_
	_atom_site_label
	_atom_site_type_symbol
	_atom_site_fract_x
	_atom_site_fract_y
	_atom_site_fract_z
	O1	O	2.648000000000E-01	-1.620000000000E-01	-1.294000000000E-01
	O2	O	-2.648000000000E-01	1.620000000000E-01	-1.294000000000E-01
	O3	O	8.100000000000E-02	4.704000000000E-01	1.294000000000E-01
	O4	O	-8.100000000000E-02	-4.704000000000E-01	1.294000000000E-01
	O5	O	-2.069500000000E-01	-1.877000000000E-01	3.697000000000E-01
	O6	O	2.069500000000E-01	1.877000000000E-01	3.697000000000E-01
	O7	O	9.385000000000E-02	4.139000000000E-01	-3.697000000000E-01
	O8	O	-9.385000000000E-02	-4.139000000000E-01	-3.697000000000E-01
	O9	O	2.500000000000E-01	-3.860495578097E-17	-4.541000000000E-01
	O10	O	3.982326499371E-18	-5.000000000000E-01	4.541000000000E-01
	O11	O	1.926000000000E-01	-1.448000000000E-01	-4.972000000000E-01
	O12	O	-1.926000000000E-01	1.448000000000E-01	-4.972000000000E-01
	O13	O	7.240000000000E-02	-3.852000000000E-01	4.972000000000E-01
	O14	O	-7.240000000000E-02	3.852000000000E-01	4.972000000000E-01
	O15	O	1.207500000000E-01	-6.770000000000E-02	-1.391000000000E-01
	O16	O	-1.207500000000E-01	6.770000000000E-02	-1.391000000000E-01
	O17	O	3.385000000000E-02	-2.415000000000E-01	1.391000000000E-01
	O18	O	-3.385000000000E-02	2.415000000000E-01	1.391000000000E-01
	O19	O	1.016000000000E-01	-2.032000000000E-01	-5.000000000000E-01
	O20	O	-1.016000000000E-01	2.032000000000E-01	-5.000000000000E-01
	O21	O	1.076000000000E-01	-1.100000000000E-02	3.623000000000E-01
	O22	O	-1.076000000000E-01	1.100000000000E-02	3.623000000000E-01
	O23	O	5.500000000000E-03	-2.152000000000E-01	-3.623000000000E-01
	O24	O	-5.500000000000E-03	2.152000000000E-01	-3.623000000000E-01
	O25	O	4.835000000000E-02	9.670000000000E-02	0.000000000000E+00
	O26	O	-4.835000000000E-02	-9.670000000000E-02	0.000000000000E+00
	O27	O	1.487000000000E-01	1.056000000000E-01	3.040000000000E-02
	O28	O	-1.487000000000E-01	-1.056000000000E-01	3.040000000000E-02
	O29	O	-5.280000000000E-02	-2.974000000000E-01	-3.040000000000E-02
	O30	O	5.280000000000E-02	2.974000000000E-01	-3.040000000000E-02
	O31	O	1.530500000000E-01	3.061000000000E-01	0.000000000000E+00
	O32	O	-1.530500000000E-01	-3.061000000000E-01	0.000000000000E+00
	Si33	Si	2.502500000000E-01	-1.237000000000E-01	-4.285000000000E-01
	Si34	Si	-2.502500000000E-01	1.237000000000E-01	-4.285000000000E-01
	Si35	Si	6.185000000000E-02	4.995000000000E-01	4.285000000000E-01
	Si36	Si	-6.185000000000E-02	-4.995000000000E-01	4.285000000000E-01
	Si37	Si	1.306000000000E-01	-1.068000000000E-01	-4.409000000000E-01
	Si38	Si	-1.306000000000E-01	1.068000000000E-01	-4.409000000000E-01
	Si39	Si	5.340000000000E-02	-2.612000000000E-01	4.409000000000E-01
	Si40	Si	-5.340000000000E-02	2.612000000000E-01	4.409000000000E-01
	Si41	Si	1.065000000000E-01	3.040000000000E-02	6.130000000000E-02
	Si42	Si	-1.065000000000E-01	-3.040000000000E-02	6.130000000000E-02
	Si43	Si	-1.520000000000E-02	-2.130000000000E-01	-6.130000000000E-02
	Si44	Si	1.520000000000E-02	2.130000000000E-01	-6.130000000000E-02
	Si45	Si	1.858500000000E-01	1.903000000000E-01	6.930000000000E-02
	Si46	Si	-1.858500000000E-01	-1.903000000000E-01	6.930000000000E-02
	Si47	Si	-9.515000000000E-02	-3.717000000000E-01	-6.930000000000E-02
	Si48	Si	9.515000000000E-02	3.717000000000E-01	-6.930000000000E-02
	O49	O	2.352000000000E-01	1.620000000000E-01	-1.294000000000E-01
	O50	O	-4.516500000000E-01	9.670000000000E-02	0.000000000000E+00
	O51	O	-4.276000000000E-01	-3.852000000000E-01	4.972000000000E-01
	O52	O	4.516500000000E-01	-9.670000000000E-02	0.000000000000E+00
	O53	O	-4.061500000000E-01	4.139000000000E-01	-3.697000000000E-01
	O54	O	-3.513000000000E-01	1.056000000000E-01	3.040000000000E-02
	O55	O	4.276000000000E-01	3.852000000000E-01	4.972000000000E-01
	O56	O	3.513000000000E-01	-1.056000000000E-01	3.040000000000E-02
	O57	O	4.190000000000E-01	-4.704000000000E-01	1.294000000000E-01
	O58	O	4.472000000000E-01	-2.974000000000E-01	-3.040000000000E-02
	O59	O	-3.792500000000E-01	-6.770000000000E-02	-1.391000000000E-01
	O60	O	-4.472000000000E-01	2.974000000000E-01	-3.040000000000E-02
	O61	O	4.061500000000E-01	-4.139000000000E-01	-3.697000000000E-01
	O62	O	-3.469500000000E-01	3.061000000000E-01	0.000000000000E+00
	O63	O	3.792500000000E-01	6.770000000000E-02	-1.391000000000E-01
	O64	O	3.469500000000E-01	-3.061000000000E-01	0.000000000000E+00
	O65	O	-2.352000000000E-01	-1.620000000000E-01	-1.294000000000E-01
	Si66	Si	-2.497500000000E-01	-1.237000000000E-01	-4.285000000000E-01
	O67	O	-4.661500000000E-01	-2.415000000000E-01	1.391000000000E-01
	Si68	Si	2.497500000000E-01	1.237000000000E-01	-4.285000000000E-01
	O69	O	-2.500000000000E-01	-8.135888913310E-17	-4.541000000000E-01
	Si70	Si	-4.381500000000E-01	4.995000000000E-01	4.285000000000E-01
	O71	O	4.661500000000E-01	2.415000000000E-01	1.391000000000E-01
	Si72	Si	4.381500000000E-01	-4.995000000000E-01	4.285000000000E-01
	O73	O	2.930500000000E-01	-1.877000000000E-01	3.697000000000E-01
	Si74	Si	-3.694000000000E-01	-1.068000000000E-01	-4.409000000000E-01
	O75	O	-3.984000000000E-01	-2.032000000000E-01	-5.000000000000E-01
	Si76	Si	3.694000000000E-01	1.068000000000E-01	-4.409000000000E-01
	O77	O	-5.000000000000E-01	-5.000000000000E-01	4.541000000000E-01
	Si78	Si	-4.466000000000E-01	-2.612000000000E-01	4.409000000000E-01
	O79	O	3.984000000000E-01	2.032000000000E-01	-5.000000000000E-01
	Si80	Si	4.466000000000E-01	2.612000000000E-01	4.409000000000E-01
	O81	O	-4.190000000000E-01	4.704000000000E-01	1.294000000000E-01
	Si82	Si	-3.935000000000E-01	3.040000000000E-02	6.130000000000E-02
	O83	O	-3.924000000000E-01	-1.100000000000E-02	3.623000000000E-01
	Si84	Si	3.935000000000E-01	-3.040000000000E-02	6.130000000000E-02
	O85	O	-3.074000000000E-01	-1.448000000000E-01	-4.972000000000E-01
	Si86	Si	4.848000000000E-01	-2.130000000000E-01	-6.130000000000E-02
	O87	O	3.924000000000E-01	1.100000000000E-02	3.623000000000E-01
	Si88	Si	-4.848000000000E-01	2.130000000000E-01	-6.130000000000E-02
	O89	O	-2.930500000000E-01	1.877000000000E-01	3.697000000000E-01
	Si90	Si	-3.141500000000E-01	1.903000000000E-01	6.930000000000E-02
	O91	O	-4.945000000000E-01	-2.152000000000E-01	-3.623000000000E-01
	Si92	Si	3.141500000000E-01	-1.903000000000E-01	6.930000000000E-02
	O93	O	3.074000000000E-01	1.448000000000E-01	-4.972000000000E-01
	Si94	Si	4.048500000000E-01	-3.717000000000E-01	-6.930000000000E-02
	O95	O	4.945000000000E-01	2.152000000000E-01	-3.623000000000E-01
	Si96	Si	-4.048500000000E-01	3.717000000000E-01	-6.930000000000E-02
