data IFO
_chemical_name_common		'IFO'
_cell_length_a		16.43882000
_cell_length_b		4.94530000
_cell_length_c		22.78303000
_cell_angle_alpha		90.000000
_cell_angle_beta		90.000000
_cell_angle_gamma		90.000000
_space group_name_H-M_alt		'P 1'
_space_group_IT_number		1

loop_
	_atom_site_label
	_atom_site_type_symbol
	_atom_site_fract_x
	_atom_site_fract_y
	_atom_site_fract_z
	Si1	Si	4.451300000000E-01	2.633000000000E-01	2.541100000000E-01
	Si2	Si	-4.451300000000E-01	-2.633000000000E-01	2.541100000000E-01
	Si3	Si	-5.487000000000E-02	2.367000000000E-01	2.458900000000E-01
	Si4	Si	5.487000000000E-02	-2.367000000000E-01	2.458900000000E-01
	Si5	Si	-4.451300000000E-01	-2.633000000000E-01	-2.541100000000E-01
	Si6	Si	4.451300000000E-01	2.633000000000E-01	-2.541100000000E-01
	Si7	Si	5.487000000000E-02	-2.367000000000E-01	-2.458900000000E-01
	Si8	Si	-5.487000000000E-02	2.367000000000E-01	-2.458900000000E-01
	Si9	Si	2.763600000000E-01	1.093800000000E-01	2.857600000000E-01
	Si10	Si	-2.763600000000E-01	-1.093800000000E-01	2.857600000000E-01
	Si11	Si	-2.236400000000E-01	3.906200000000E-01	2.142400000000E-01
	Si12	Si	2.236400000000E-01	-3.906200000000E-01	2.142400000000E-01
	Si13	Si	-2.763600000000E-01	-1.093800000000E-01	-2.857600000000E-01
	Si14	Si	2.763600000000E-01	1.093800000000E-01	-2.857600000000E-01
	Si15	Si	2.236400000000E-01	-3.906200000000E-01	-2.142400000000E-01
	Si16	Si	-2.236400000000E-01	3.906200000000E-01	-2.142400000000E-01
	Si17	Si	-4.079700000000E-01	8.881000000000E-02	6.899000000000E-02
	Si18	Si	4.079700000000E-01	-8.881000000000E-02	6.899000000000E-02
	Si19	Si	9.203000000000E-02	4.111900000000E-01	4.310100000000E-01
	Si20	Si	-9.203000000000E-02	-4.111900000000E-01	4.310100000000E-01
	Si21	Si	4.079700000000E-01	-8.881000000000E-02	-6.899000000000E-02
	Si22	Si	-4.079700000000E-01	8.881000000000E-02	-6.899000000000E-02
	Si23	Si	-9.203000000000E-02	-4.111900000000E-01	-4.310100000000E-01
	Si24	Si	9.203000000000E-02	4.111900000000E-01	-4.310100000000E-01
	Si25	Si	3.535400000000E-01	3.966900000000E-01	1.352800000000E-01
	Si26	Si	-3.535400000000E-01	-3.966900000000E-01	1.352800000000E-01
	Si27	Si	-1.464600000000E-01	1.033100000000E-01	3.647200000000E-01
	Si28	Si	1.464600000000E-01	-1.033100000000E-01	3.647200000000E-01
	Si29	Si	-3.535400000000E-01	-3.966900000000E-01	-1.352800000000E-01
	Si30	Si	3.535400000000E-01	3.966900000000E-01	-1.352800000000E-01
	Si31	Si	1.464600000000E-01	-1.033100000000E-01	-3.647200000000E-01
	Si32	Si	-1.464600000000E-01	1.033100000000E-01	-3.647200000000E-01
	O33	O	4.103600000000E-01	3.740600000000E-01	1.925700000000E-01
	O34	O	-4.103600000000E-01	-3.740600000000E-01	1.925700000000E-01
	O35	O	-8.964000000000E-02	1.259400000000E-01	3.074300000000E-01
	O36	O	8.964000000000E-02	-1.259400000000E-01	3.074300000000E-01
	O37	O	-4.103600000000E-01	-3.740600000000E-01	-1.925700000000E-01
	O38	O	4.103600000000E-01	3.740600000000E-01	-1.925700000000E-01
	O39	O	8.964000000000E-02	-1.259400000000E-01	-3.074300000000E-01
	O40	O	-8.964000000000E-02	1.259400000000E-01	-3.074300000000E-01
	O41	O	-5.000000000000E-01	0.000000000000E+00	2.421000000000E-01
	O42	O	0.000000000000E+00	-5.000000000000E-01	2.579000000000E-01
	O43	O	-5.000000000000E-01	0.000000000000E+00	-2.421000000000E-01
	O44	O	0.000000000000E+00	-5.000000000000E-01	-2.579000000000E-01
	O45	O	-5.000000000000E-01	-5.000000000000E-01	2.824400000000E-01
	O46	O	0.000000000000E+00	-1.110223024625E-16	2.175600000000E-01
	O47	O	-5.000000000000E-01	-5.000000000000E-01	-2.824400000000E-01
	O48	O	0.000000000000E+00	-3.428910554792E-17	-2.175600000000E-01
	O49	O	3.702800000000E-01	1.877000000000E-01	2.966500000000E-01
	O50	O	-3.702800000000E-01	-1.877000000000E-01	2.966500000000E-01
	O51	O	-1.297200000000E-01	3.123000000000E-01	2.033500000000E-01
	O52	O	1.297200000000E-01	-3.123000000000E-01	2.033500000000E-01
	O53	O	-3.702800000000E-01	-1.877000000000E-01	-2.966500000000E-01
	O54	O	3.702800000000E-01	1.877000000000E-01	-2.966500000000E-01
	O55	O	1.297200000000E-01	-3.123000000000E-01	-2.033500000000E-01
	O56	O	-1.297200000000E-01	3.123000000000E-01	-2.033500000000E-01
	O57	O	2.715500000000E-01	-1.273100000000E-01	2.373400000000E-01
	O58	O	-2.715500000000E-01	1.273100000000E-01	2.373400000000E-01
	O59	O	-2.284500000000E-01	-3.726900000000E-01	2.626600000000E-01
	O60	O	2.284500000000E-01	3.726900000000E-01	2.626600000000E-01
	O61	O	-2.715500000000E-01	1.273100000000E-01	-2.373400000000E-01
	O62	O	2.715500000000E-01	-1.273100000000E-01	-2.373400000000E-01
	O63	O	2.284500000000E-01	3.726900000000E-01	-2.626600000000E-01
	O64	O	-2.284500000000E-01	-3.726900000000E-01	-2.626600000000E-01
	O65	O	2.350700000000E-01	4.370000000000E-03	3.456900000000E-01
	O66	O	-2.350700000000E-01	-4.370000000000E-03	3.456900000000E-01
	O67	O	-2.649300000000E-01	4.956300000000E-01	1.543100000000E-01
	O68	O	2.649300000000E-01	-4.956300000000E-01	1.543100000000E-01
	O69	O	-2.350700000000E-01	-4.370000000000E-03	-3.456900000000E-01
	O70	O	2.350700000000E-01	4.370000000000E-03	-3.456900000000E-01
	O71	O	2.649300000000E-01	-4.956300000000E-01	-1.543100000000E-01
	O72	O	-2.649300000000E-01	4.956300000000E-01	-1.543100000000E-01
	O73	O	-5.000000000000E-01	0.000000000000E+00	8.320000000000E-02
	O74	O	0.000000000000E+00	-5.000000000000E-01	4.168000000000E-01
	O75	O	-5.000000000000E-01	0.000000000000E+00	-8.320000000000E-02
	O76	O	0.000000000000E+00	-5.000000000000E-01	-4.168000000000E-01
	O77	O	-3.465200000000E-01	-1.030200000000E-01	1.051100000000E-01
	O78	O	3.465200000000E-01	1.030200000000E-01	1.051100000000E-01
	O79	O	1.534800000000E-01	-3.969800000000E-01	3.948900000000E-01
	O80	O	-1.534800000000E-01	3.969800000000E-01	3.948900000000E-01
	O81	O	3.465200000000E-01	1.030200000000E-01	-1.051100000000E-01
	O82	O	-3.465200000000E-01	-1.030200000000E-01	-1.051100000000E-01
	O83	O	-1.534800000000E-01	3.969800000000E-01	-3.948900000000E-01
	O84	O	1.534800000000E-01	-3.969800000000E-01	-3.948900000000E-01
	O85	O	-3.940200000000E-01	3.975700000000E-01	8.896000000000E-02
	O86	O	3.940200000000E-01	-3.975700000000E-01	8.896000000000E-02
	O87	O	1.059800000000E-01	1.024300000000E-01	4.110400000000E-01
	O88	O	-1.059800000000E-01	-1.024300000000E-01	4.110400000000E-01
	O89	O	3.940200000000E-01	-3.975700000000E-01	-8.896000000000E-02
	O90	O	-3.940200000000E-01	3.975700000000E-01	-8.896000000000E-02
	O91	O	-1.059800000000E-01	-1.024300000000E-01	-4.110400000000E-01
	O92	O	1.059800000000E-01	1.024300000000E-01	-4.110400000000E-01
	O93	O	-3.896000000000E-01	5.763000000000E-02	0.000000000000E+00
	O94	O	3.896000000000E-01	-5.763000000000E-02	0.000000000000E+00
	O95	O	1.104000000000E-01	4.423700000000E-01	-5.000000000000E-01
	O96	O	-1.104000000000E-01	-4.423700000000E-01	-5.000000000000E-01
