data IFR
_chemical_name_common		'IFR'
_cell_length_a		11.48399408
_cell_length_b		22.96798816
_cell_length_c		7.62900000
_cell_angle_alpha		80.033007
_cell_angle_beta		99.966993
_cell_angle_gamma		108.395700
_space group_name_H-M_alt		'P 1'
_space_group_IT_number		1

loop_
	_atom_site_label
	_atom_site_type_symbol
	_atom_site_fract_x
	_atom_site_fract_y
	_atom_site_fract_z
	O1	O	-3.134000000000E-01	-2.176000000000E-01	-1.582000000000E-01
	O2	O	-4.352000000000E-01	-1.567000000000E-01	1.582000000000E-01
	O3	O	3.134000000000E-01	2.176000000000E-01	1.582000000000E-01
	O4	O	4.352000000000E-01	1.567000000000E-01	-1.582000000000E-01
	O5	O	4.591000000000E-01	-2.295500000000E-01	-3.151000000000E-01
	O6	O	-4.591000000000E-01	-2.704500000000E-01	3.151000000000E-01
	O7	O	-3.915000000000E-01	-1.194500000000E-01	-2.555000000000E-01
	O8	O	-2.389000000000E-01	-1.957500000000E-01	2.555000000000E-01
	O9	O	3.915000000000E-01	1.194500000000E-01	2.555000000000E-01
	O10	O	2.389000000000E-01	1.957500000000E-01	-2.555000000000E-01
	O11	O	-3.532000000000E-01	-1.766000000000E-01	-5.000000000000E-01
	O12	O	3.532000000000E-01	1.766000000000E-01	-5.000000000000E-01
	O13	O	-1.366000000000E-01	-2.483000000000E-01	7.000000000000E-02
	O14	O	-4.966000000000E-01	-6.830000000000E-02	-7.000000000000E-02
	O15	O	1.366000000000E-01	2.483000000000E-01	-7.000000000000E-02
	O16	O	4.966000000000E-01	6.830000000000E-02	7.000000000000E-02
	O17	O	-3.305000000000E-01	1.652500000000E-01	-5.120000000000E-02
	O18	O	3.305000000000E-01	-1.652500000000E-01	5.120000000000E-02
	O19	O	-1.678000000000E-01	2.311000000000E-01	-2.666000000000E-01
	O20	O	4.622000000000E-01	-8.390000000000E-02	2.666000000000E-01
	O21	O	1.678000000000E-01	-2.311000000000E-01	2.666000000000E-01
	O22	O	-4.622000000000E-01	8.390000000000E-02	-2.666000000000E-01
	O23	O	3.677000000000E-01	2.500000000000E-04	3.252000000000E-01
	O24	O	5.000000000003E-04	1.838500000000E-01	-3.252000000000E-01
	O25	O	-3.677000000000E-01	-2.500000000000E-04	-3.252000000000E-01
	O26	O	-5.000000000003E-04	-1.838500000000E-01	3.252000000000E-01
	O27	O	4.177000000000E-01	-8.115000000000E-02	-4.086000000000E-01
	O28	O	-1.623000000000E-01	2.088500000000E-01	4.086000000000E-01
	O29	O	-4.177000000000E-01	8.115000000000E-02	4.086000000000E-01
	O30	O	1.623000000000E-01	-2.088500000000E-01	-4.086000000000E-01
	O31	O	2.328000000000E-01	-1.164000000000E-01	3.388000000000E-01
	O32	O	-2.328000000000E-01	1.164000000000E-01	-3.388000000000E-01
	Si33	Si	-4.595000000000E-01	-6.725000000000E-02	-2.649000000000E-01
	Si34	Si	-1.345000000000E-01	-2.297500000000E-01	2.649000000000E-01
	Si35	Si	4.595000000000E-01	6.725000000000E-02	2.649000000000E-01
	Si36	Si	1.345000000000E-01	2.297500000000E-01	-2.649000000000E-01
	Si37	Si	-4.000000000000E-01	-1.859000000000E-01	-3.072000000000E-01
	Si38	Si	-3.718000000000E-01	-2.000000000000E-01	3.072000000000E-01
	Si39	Si	4.000000000000E-01	1.859000000000E-01	3.072000000000E-01
	Si40	Si	3.718000000000E-01	2.000000000000E-01	-3.072000000000E-01
	Si41	Si	-2.369000000000E-01	-2.672500000000E-01	-1.019000000000E-01
	Si42	Si	4.655000000000E-01	-1.184500000000E-01	1.019000000000E-01
	Si43	Si	2.369000000000E-01	2.672500000000E-01	1.019000000000E-01
	Si44	Si	-4.655000000000E-01	1.184500000000E-01	-1.019000000000E-01
	Si45	Si	3.699000000000E-01	-7.035000000000E-02	3.805000000000E-01
	Si46	Si	-1.407000000000E-01	1.849500000000E-01	-3.805000000000E-01
	Si47	Si	-3.699000000000E-01	7.035000000000E-02	-3.805000000000E-01
	Si48	Si	1.407000000000E-01	-1.849500000000E-01	3.805000000000E-01
	O49	O	-4.352000000000E-01	3.433000000000E-01	1.582000000000E-01
	O50	O	-3.677000000000E-01	4.997500000000E-01	-3.252000000000E-01
	O51	O	-1.366000000000E-01	2.517000000000E-01	7.000000000000E-02
	O52	O	-5.000000000000E-04	3.161500000000E-01	3.252000000000E-01
	O53	O	-3.915000000000E-01	3.805500000000E-01	-2.555000000000E-01
	O54	O	4.177000000000E-01	4.188500000000E-01	-4.086000000000E-01
	O55	O	-4.966000000000E-01	4.317000000000E-01	-7.000000000000E-02
	O56	O	-1.623000000000E-01	-2.911500000000E-01	4.086000000000E-01
	O57	O	4.352000000000E-01	-3.433000000000E-01	-1.582000000000E-01
	O58	O	-4.177000000000E-01	-4.188500000000E-01	4.086000000000E-01
	O59	O	1.366000000000E-01	-2.517000000000E-01	-7.000000000000E-02
	O60	O	1.623000000000E-01	2.911500000000E-01	-4.086000000000E-01
	O61	O	-2.389000000000E-01	3.042500000000E-01	2.555000000000E-01
	O62	O	2.328000000000E-01	3.836000000000E-01	3.388000000000E-01
	O63	O	4.966000000000E-01	-4.317000000000E-01	7.000000000000E-02
	O64	O	-2.328000000000E-01	-3.836000000000E-01	-3.388000000000E-01
	O65	O	-3.134000000000E-01	2.824000000000E-01	-1.582000000000E-01
	Si66	Si	-4.595000000000E-01	4.327500000000E-01	-2.649000000000E-01
	O67	O	-3.305000000000E-01	-3.347500000000E-01	-5.120000000000E-02
	Si68	Si	-1.345000000000E-01	2.702500000000E-01	2.649000000000E-01
	O69	O	3.915000000000E-01	-3.805500000000E-01	2.555000000000E-01
	Si70	Si	4.595000000000E-01	-4.327500000000E-01	2.649000000000E-01
	O71	O	3.305000000000E-01	3.347500000000E-01	5.120000000000E-02
	Si72	Si	1.345000000000E-01	-2.702500000000E-01	-2.649000000000E-01
	O73	O	4.591000000000E-01	2.704500000000E-01	-3.151000000000E-01
	Si74	Si	-4.000000000000E-01	3.141000000000E-01	-3.072000000000E-01
	O75	O	-1.678000000000E-01	-2.689000000000E-01	-2.666000000000E-01
	Si76	Si	-3.718000000000E-01	3.000000000000E-01	3.072000000000E-01
	O77	O	2.389000000000E-01	-3.042500000000E-01	-2.555000000000E-01
	Si78	Si	4.000000000000E-01	-3.141000000000E-01	3.072000000000E-01
	O79	O	4.622000000000E-01	4.161000000000E-01	2.666000000000E-01
	Si80	Si	3.718000000000E-01	-3.000000000000E-01	-3.072000000000E-01
	O81	O	3.134000000000E-01	-2.824000000000E-01	1.582000000000E-01
	Si82	Si	-2.369000000000E-01	2.327500000000E-01	-1.019000000000E-01
	O83	O	1.678000000000E-01	2.689000000000E-01	2.666000000000E-01
	Si84	Si	4.655000000000E-01	3.815500000000E-01	1.019000000000E-01
	O85	O	-3.532000000000E-01	3.234000000000E-01	-5.000000000000E-01
	Si86	Si	2.369000000000E-01	-2.327500000000E-01	1.019000000000E-01
	O87	O	-4.622000000000E-01	-4.161000000000E-01	-2.666000000000E-01
	Si88	Si	-4.655000000000E-01	-3.815500000000E-01	-1.019000000000E-01
	O89	O	-4.591000000000E-01	2.295500000000E-01	3.151000000000E-01
	Si90	Si	3.699000000000E-01	4.296500000000E-01	3.805000000000E-01
	O91	O	3.677000000000E-01	-4.997500000000E-01	3.252000000000E-01
	Si92	Si	-1.407000000000E-01	-3.150500000000E-01	-3.805000000000E-01
	O93	O	3.532000000000E-01	-3.234000000000E-01	-5.000000000000E-01
	Si94	Si	-3.699000000000E-01	-4.296500000000E-01	-3.805000000000E-01
	O95	O	5.000000000002E-04	-3.161500000000E-01	-3.252000000000E-01
	Si96	Si	1.407000000000E-01	3.150500000000E-01	3.805000000000E-01
