data IFW
_chemical_name_common		'IFW'
_cell_length_a		14.15747862
_cell_length_b		14.15747862
_cell_length_c		12.48474000
_cell_angle_alpha		64.149829
_cell_angle_beta		115.850171
_cell_angle_gamma		99.840114
_space group_name_H-M_alt		'P 1'
_space_group_IT_number		1

loop_
	_atom_site_label
	_atom_site_type_symbol
	_atom_site_fract_x
	_atom_site_fract_y
	_atom_site_fract_z
	Si1	Si	3.336000000000E-01	-1.328000000000E-02	4.643500000000E-01
	Si2	Si	-1.328000000000E-02	3.336000000000E-01	-4.643500000000E-01
	Si3	Si	-3.336000000000E-01	1.328000000000E-02	-4.643500000000E-01
	Si4	Si	1.328000000000E-02	-3.336000000000E-01	4.643500000000E-01
	Si5	Si	3.025900000000E-01	2.052500000000E-01	4.468700000000E-01
	Si6	Si	2.052500000000E-01	3.025900000000E-01	-4.468700000000E-01
	Si7	Si	-3.025900000000E-01	-2.052500000000E-01	-4.468700000000E-01
	Si8	Si	-2.052500000000E-01	-3.025900000000E-01	4.468700000000E-01
	Si9	Si	4.527300000000E-01	4.019000000000E-02	2.915000000000E-01
	Si10	Si	4.019000000000E-02	4.527300000000E-01	-2.915000000000E-01
	Si11	Si	-4.527300000000E-01	-4.019000000000E-02	-2.915000000000E-01
	Si12	Si	-4.019000000000E-02	-4.527300000000E-01	2.915000000000E-01
	Si13	Si	4.142000000000E-01	2.837200000000E-01	-2.164100000000E-01
	Si14	Si	2.837200000000E-01	4.142000000000E-01	2.164100000000E-01
	Si15	Si	-4.142000000000E-01	-2.837200000000E-01	2.164100000000E-01
	Si16	Si	-2.837200000000E-01	-4.142000000000E-01	-2.164100000000E-01
	Si17	Si	4.323900000000E-01	2.611100000000E-01	5.330000000000E-02
	Si18	Si	2.611100000000E-01	4.323900000000E-01	-5.330000000000E-02
	Si19	Si	-4.323900000000E-01	-2.611100000000E-01	-5.330000000000E-02
	Si20	Si	-2.611100000000E-01	-4.323900000000E-01	5.330000000000E-02
	Si21	Si	-4.883800000000E-01	1.767000000000E-01	-3.145500000000E-01
	Si22	Si	1.767000000000E-01	-4.883800000000E-01	3.145500000000E-01
	Si23	Si	4.883800000000E-01	-1.767000000000E-01	3.145500000000E-01
	Si24	Si	-1.767000000000E-01	4.883800000000E-01	-3.145500000000E-01
	Si25	Si	-3.295100000000E-01	3.295100000000E-01	-4.047500000000E-01
	Si26	Si	3.295100000000E-01	-3.295100000000E-01	4.047500000000E-01
	Si27	Si	-3.757000000000E-01	3.757000000000E-01	2.013200000000E-01
	Si28	Si	3.757000000000E-01	-3.757000000000E-01	-2.013200000000E-01
	Si29	Si	2.302100000000E-01	-2.302100000000E-01	-4.785600000000E-01
	Si30	Si	-2.302100000000E-01	2.302100000000E-01	4.785600000000E-01
	Si31	Si	-4.750600000000E-01	4.750600000000E-01	3.179100000000E-01
	Si32	Si	4.750600000000E-01	-4.750600000000E-01	-3.179100000000E-01
	O33	O	2.853500000000E-01	8.907000000000E-02	4.493200000000E-01
	O34	O	8.907000000000E-02	2.853500000000E-01	-4.493200000000E-01
	O35	O	-2.853500000000E-01	-8.907000000000E-02	-4.493200000000E-01
	O36	O	-8.907000000000E-02	-2.853500000000E-01	4.493200000000E-01
	O37	O	2.791000000000E-01	2.903800000000E-01	3.003400000000E-01
	O38	O	2.903800000000E-01	2.791000000000E-01	-3.003400000000E-01
	O39	O	-2.791000000000E-01	-2.903800000000E-01	-3.003400000000E-01
	O40	O	-2.903800000000E-01	-2.791000000000E-01	3.003400000000E-01
	O41	O	4.227500000000E-01	2.157500000000E-01	-4.613000000000E-01
	O42	O	2.157500000000E-01	4.227500000000E-01	4.613000000000E-01
	O43	O	-4.227500000000E-01	-2.157500000000E-01	4.613000000000E-01
	O44	O	-2.157500000000E-01	-4.227500000000E-01	-4.613000000000E-01
	O45	O	4.363500000000E-01	2.471900000000E-01	-6.592000000000E-02
	O46	O	2.471900000000E-01	4.363500000000E-01	6.592000000000E-02
	O47	O	-4.363500000000E-01	-2.471900000000E-01	6.592000000000E-02
	O48	O	-2.471900000000E-01	-4.363500000000E-01	-6.592000000000E-02
	O49	O	4.550300000000E-01	4.008100000000E-01	-2.729300000000E-01
	O50	O	4.008100000000E-01	4.550300000000E-01	2.729300000000E-01
	O51	O	-4.550300000000E-01	-4.008100000000E-01	2.729300000000E-01
	O52	O	-4.008100000000E-01	-4.550300000000E-01	-2.729300000000E-01
	O53	O	4.744200000000E-01	2.021800000000E-01	-2.249600000000E-01
	O54	O	2.021800000000E-01	4.744200000000E-01	2.249600000000E-01
	O55	O	-4.744200000000E-01	-2.021800000000E-01	2.249600000000E-01
	O56	O	-2.021800000000E-01	-4.744200000000E-01	-2.249600000000E-01
	O57	O	-4.644100000000E-01	3.203700000000E-01	1.142200000000E-01
	O58	O	3.203700000000E-01	-4.644100000000E-01	-1.142200000000E-01
	O59	O	4.644100000000E-01	-3.203700000000E-01	-1.142200000000E-01
	O60	O	-3.203700000000E-01	4.644100000000E-01	1.142200000000E-01
	O61	O	4.257600000000E-01	1.480800000000E-01	1.626100000000E-01
	O62	O	1.480800000000E-01	4.257600000000E-01	-1.626100000000E-01
	O63	O	-4.257600000000E-01	-1.480800000000E-01	-1.626100000000E-01
	O64	O	-1.480800000000E-01	-4.257600000000E-01	1.626100000000E-01
	O65	O	-3.821200000000E-01	2.386400000000E-01	-3.158100000000E-01
	O66	O	2.386400000000E-01	-3.821200000000E-01	3.158100000000E-01
	O67	O	3.821200000000E-01	-2.386400000000E-01	3.158100000000E-01
	O68	O	-2.386400000000E-01	3.821200000000E-01	-3.158100000000E-01
	O69	O	-4.663300000000E-01	5.269000000000E-02	-2.574400000000E-01
	O70	O	5.269000000000E-02	-4.663300000000E-01	2.574400000000E-01
	O71	O	4.663300000000E-01	-5.269000000000E-02	2.574400000000E-01
	O72	O	-5.269000000000E-02	4.663300000000E-01	-2.574400000000E-01
	O73	O	3.596800000000E-01	1.392000000000E-02	3.408200000000E-01
	O74	O	1.392000000000E-02	3.596800000000E-01	-3.408200000000E-01
	O75	O	-3.596800000000E-01	-1.392000000000E-02	-3.408200000000E-01
	O76	O	-1.392000000000E-02	-3.596800000000E-01	3.408200000000E-01
	O77	O	2.499800000000E-01	-1.059400000000E-01	4.742300000000E-01
	O78	O	-1.059400000000E-01	2.499800000000E-01	-4.742300000000E-01
	O79	O	-2.499800000000E-01	1.059400000000E-01	-4.742300000000E-01
	O80	O	1.059400000000E-01	-2.499800000000E-01	4.742300000000E-01
	O81	O	4.395000000000E-01	-5.226000000000E-02	-4.043800000000E-01
	O82	O	-5.226000000000E-02	4.395000000000E-01	4.043800000000E-01
	O83	O	-4.395000000000E-01	5.226000000000E-02	4.043800000000E-01
	O84	O	5.226000000000E-02	-4.395000000000E-01	-4.043800000000E-01
	O85	O	2.268100000000E-01	2.268100000000E-01	5.000000000000E-01
	O86	O	-2.268100000000E-01	-2.268100000000E-01	5.000000000000E-01
	O87	O	3.288100000000E-01	3.288100000000E-01	0.000000000000E+00
	O88	O	-3.288100000000E-01	-3.288100000000E-01	0.000000000000E+00
	O89	O	-4.165000000000E-01	4.165000000000E-01	4.741500000000E-01
	O90	O	4.165000000000E-01	-4.165000000000E-01	-4.741500000000E-01
	O91	O	-4.290100000000E-01	4.290100000000E-01	2.525700000000E-01
	O92	O	4.290100000000E-01	-4.290100000000E-01	-2.525700000000E-01
	O93	O	-2.766100000000E-01	2.766100000000E-01	-4.568100000000E-01
	O94	O	2.766100000000E-01	-2.766100000000E-01	4.568100000000E-01
	O95	O	-2.886600000000E-01	2.886600000000E-01	3.223800000000E-01
	O96	O	2.886600000000E-01	-2.886600000000E-01	-3.223800000000E-01
