data IFY
_chemical_name_common		'IFY'
_cell_length_a		15.15117000
_cell_length_b		15.15117000
_cell_length_c		11.84800000
_cell_angle_alpha		90.000000
_cell_angle_beta		90.000000
_cell_angle_gamma		90.000000
_space group_name_H-M_alt		'P 1'
_space_group_IT_number		1

loop_
	_atom_site_label
	_atom_site_type_symbol
	_atom_site_fract_x
	_atom_site_fract_y
	_atom_site_fract_z
	Si1	Si	9.107000000000E-02	-2.679900000000E-01	1.874900000000E-01
	Si2	Si	-9.107000000000E-02	2.679900000000E-01	1.874900000000E-01
	Si3	Si	-4.089300000000E-01	-2.320100000000E-01	-1.874900000000E-01
	Si4	Si	4.089300000000E-01	2.320100000000E-01	-1.874900000000E-01
	Si5	Si	-2.320100000000E-01	4.089300000000E-01	-1.874900000000E-01
	Si6	Si	2.320100000000E-01	-4.089300000000E-01	-1.874900000000E-01
	Si7	Si	-2.679900000000E-01	-9.107000000000E-02	1.874900000000E-01
	Si8	Si	2.679900000000E-01	9.107000000000E-02	1.874900000000E-01
	Si9	Si	-9.107000000000E-02	2.679900000000E-01	-1.874900000000E-01
	Si10	Si	9.107000000000E-02	-2.679900000000E-01	-1.874900000000E-01
	Si11	Si	4.089300000000E-01	2.320100000000E-01	1.874900000000E-01
	Si12	Si	-4.089300000000E-01	-2.320100000000E-01	1.874900000000E-01
	Si13	Si	2.320100000000E-01	-4.089300000000E-01	1.874900000000E-01
	Si14	Si	-2.320100000000E-01	4.089300000000E-01	1.874900000000E-01
	Si15	Si	2.679900000000E-01	9.107000000000E-02	-1.874900000000E-01
	Si16	Si	-2.679900000000E-01	-9.107000000000E-02	-1.874900000000E-01
	Si17	Si	2.320000000000E-02	-1.420800000000E-01	3.682800000000E-01
	Si18	Si	-2.320000000000E-02	1.420800000000E-01	3.682800000000E-01
	Si19	Si	-4.768000000000E-01	-3.579200000000E-01	-3.682800000000E-01
	Si20	Si	4.768000000000E-01	3.579200000000E-01	-3.682800000000E-01
	Si21	Si	-3.579200000000E-01	4.768000000000E-01	-3.682800000000E-01
	Si22	Si	3.579200000000E-01	-4.768000000000E-01	-3.682800000000E-01
	Si23	Si	-1.420800000000E-01	-2.320000000000E-02	3.682800000000E-01
	Si24	Si	1.420800000000E-01	2.320000000000E-02	3.682800000000E-01
	Si25	Si	-2.320000000000E-02	1.420800000000E-01	-3.682800000000E-01
	Si26	Si	2.320000000000E-02	-1.420800000000E-01	-3.682800000000E-01
	Si27	Si	4.768000000000E-01	3.579200000000E-01	3.682800000000E-01
	Si28	Si	-4.768000000000E-01	-3.579200000000E-01	3.682800000000E-01
	Si29	Si	3.579200000000E-01	-4.768000000000E-01	3.682800000000E-01
	Si30	Si	-3.579200000000E-01	4.768000000000E-01	3.682800000000E-01
	Si31	Si	1.420800000000E-01	2.320000000000E-02	-3.682800000000E-01
	Si32	Si	-1.420800000000E-01	-2.320000000000E-02	-3.682800000000E-01
	Si33	Si	3.087000000000E-02	3.194100000000E-01	0.000000000000E+00
	Si34	Si	-3.087000000000E-02	-3.194100000000E-01	0.000000000000E+00
	Si35	Si	-4.691300000000E-01	1.805900000000E-01	0.000000000000E+00
	Si36	Si	4.691300000000E-01	-1.805900000000E-01	0.000000000000E+00
	Si37	Si	1.805900000000E-01	4.691300000000E-01	0.000000000000E+00
	Si38	Si	-1.805900000000E-01	-4.691300000000E-01	0.000000000000E+00
	Si39	Si	3.194100000000E-01	-3.087000000000E-02	0.000000000000E+00
	Si40	Si	-3.194100000000E-01	3.087000000000E-02	0.000000000000E+00
	Si41	Si	1.697300000000E-01	1.807600000000E-01	0.000000000000E+00
	Si42	Si	-1.697300000000E-01	-1.807600000000E-01	0.000000000000E+00
	Si43	Si	-3.302700000000E-01	3.192400000000E-01	0.000000000000E+00
	Si44	Si	3.302700000000E-01	-3.192400000000E-01	0.000000000000E+00
	Si45	Si	3.192400000000E-01	3.302700000000E-01	0.000000000000E+00
	Si46	Si	-3.192400000000E-01	-3.302700000000E-01	0.000000000000E+00
	Si47	Si	1.807600000000E-01	-1.697300000000E-01	0.000000000000E+00
	Si48	Si	-1.807600000000E-01	1.697300000000E-01	0.000000000000E+00
	O49	O	1.220300000000E-01	-1.854900000000E-01	1.113600000000E-01
	O50	O	-1.220300000000E-01	1.854900000000E-01	1.113600000000E-01
	O51	O	-3.779700000000E-01	-3.145100000000E-01	-1.113600000000E-01
	O52	O	3.779700000000E-01	3.145100000000E-01	-1.113600000000E-01
	O53	O	-3.145100000000E-01	3.779700000000E-01	-1.113600000000E-01
	O54	O	3.145100000000E-01	-3.779700000000E-01	-1.113600000000E-01
	O55	O	-1.854900000000E-01	-1.220300000000E-01	1.113600000000E-01
	O56	O	1.854900000000E-01	1.220300000000E-01	1.113600000000E-01
	O57	O	-1.220300000000E-01	1.854900000000E-01	-1.113600000000E-01
	O58	O	1.220300000000E-01	-1.854900000000E-01	-1.113600000000E-01
	O59	O	3.779700000000E-01	3.145100000000E-01	1.113600000000E-01
	O60	O	-3.779700000000E-01	-3.145100000000E-01	1.113600000000E-01
	O61	O	3.145100000000E-01	-3.779700000000E-01	1.113600000000E-01
	O62	O	-3.145100000000E-01	3.779700000000E-01	1.113600000000E-01
	O63	O	1.854900000000E-01	1.220300000000E-01	-1.113600000000E-01
	O64	O	-1.854900000000E-01	-1.220300000000E-01	-1.113600000000E-01
	O65	O	3.776000000000E-02	-2.303100000000E-01	2.946900000000E-01
	O66	O	-3.776000000000E-02	2.303100000000E-01	2.946900000000E-01
	O67	O	-4.622400000000E-01	-2.696900000000E-01	-2.946900000000E-01
	O68	O	4.622400000000E-01	2.696900000000E-01	-2.946900000000E-01
	O69	O	-2.696900000000E-01	4.622400000000E-01	-2.946900000000E-01
	O70	O	2.696900000000E-01	-4.622400000000E-01	-2.946900000000E-01
	O71	O	-2.303100000000E-01	-3.776000000000E-02	2.946900000000E-01
	O72	O	2.303100000000E-01	3.776000000000E-02	2.946900000000E-01
	O73	O	-3.776000000000E-02	2.303100000000E-01	-2.946900000000E-01
	O74	O	3.776000000000E-02	-2.303100000000E-01	-2.946900000000E-01
	O75	O	4.622400000000E-01	2.696900000000E-01	2.946900000000E-01
	O76	O	-4.622400000000E-01	-2.696900000000E-01	2.946900000000E-01
	O77	O	2.696900000000E-01	-4.622400000000E-01	2.946900000000E-01
	O78	O	-2.696900000000E-01	4.622400000000E-01	2.946900000000E-01
	O79	O	2.303100000000E-01	3.776000000000E-02	-2.946900000000E-01
	O80	O	-2.303100000000E-01	-3.776000000000E-02	-2.946900000000E-01
	O81	O	1.759300000000E-01	-3.240700000000E-01	2.271800000000E-01
	O82	O	-1.759300000000E-01	3.240700000000E-01	2.271800000000E-01
	O83	O	-3.240700000000E-01	-1.759300000000E-01	-2.271800000000E-01
	O84	O	3.240700000000E-01	1.759300000000E-01	-2.271800000000E-01
	O85	O	-1.759300000000E-01	3.240700000000E-01	-2.271800000000E-01
	O86	O	1.759300000000E-01	-3.240700000000E-01	-2.271800000000E-01
	O87	O	-3.240700000000E-01	-1.759300000000E-01	2.271800000000E-01
	O88	O	3.240700000000E-01	1.759300000000E-01	2.271800000000E-01
	O89	O	2.880000000000E-02	-3.305100000000E-01	1.115700000000E-01
	O90	O	-2.880000000000E-02	3.305100000000E-01	1.115700000000E-01
	O91	O	-4.712000000000E-01	-1.694900000000E-01	-1.115700000000E-01
	O92	O	4.712000000000E-01	1.694900000000E-01	-1.115700000000E-01
	O93	O	-1.694900000000E-01	4.712000000000E-01	-1.115700000000E-01
	O94	O	1.694900000000E-01	-4.712000000000E-01	-1.115700000000E-01
	O95	O	-3.305100000000E-01	-2.880000000000E-02	1.115700000000E-01
	O96	O	3.305100000000E-01	2.880000000000E-02	1.115700000000E-01
	O97	O	-2.880000000000E-02	3.305100000000E-01	-1.115700000000E-01
	O98	O	2.880000000000E-02	-3.305100000000E-01	-1.115700000000E-01
	O99	O	4.712000000000E-01	1.694900000000E-01	1.115700000000E-01
	O100	O	-4.712000000000E-01	-1.694900000000E-01	1.115700000000E-01
	O101	O	1.694900000000E-01	-4.712000000000E-01	1.115700000000E-01
	O102	O	-1.694900000000E-01	4.712000000000E-01	1.115700000000E-01
	O103	O	3.305100000000E-01	2.880000000000E-02	-1.115700000000E-01
	O104	O	-3.305100000000E-01	-2.880000000000E-02	-1.115700000000E-01
	O105	O	7.136000000000E-02	2.210600000000E-01	0.000000000000E+00
	O106	O	-7.136000000000E-02	-2.210600000000E-01	0.000000000000E+00
	O107	O	-4.286400000000E-01	2.789400000000E-01	0.000000000000E+00
	O108	O	4.286400000000E-01	-2.789400000000E-01	0.000000000000E+00
	O109	O	2.789400000000E-01	4.286400000000E-01	0.000000000000E+00
	O110	O	-2.789400000000E-01	-4.286400000000E-01	0.000000000000E+00
	O111	O	2.210600000000E-01	-7.136000000000E-02	0.000000000000E+00
	O112	O	-2.210600000000E-01	7.136000000000E-02	0.000000000000E+00
	O113	O	1.098400000000E-01	3.901600000000E-01	0.000000000000E+00
	O114	O	-1.098400000000E-01	-3.901600000000E-01	0.000000000000E+00
	O115	O	-3.901600000000E-01	1.098400000000E-01	0.000000000000E+00
	O116	O	3.901600000000E-01	-1.098400000000E-01	0.000000000000E+00
	O117	O	2.387200000000E-01	2.612800000000E-01	0.000000000000E+00
	O118	O	-2.387200000000E-01	-2.612800000000E-01	0.000000000000E+00
	O119	O	-2.612800000000E-01	2.387200000000E-01	0.000000000000E+00
	O120	O	2.612800000000E-01	-2.387200000000E-01	0.000000000000E+00
	O121	O	9.964000000000E-02	-7.166000000000E-02	3.398600000000E-01
	O122	O	-9.964000000000E-02	7.166000000000E-02	3.398600000000E-01
	O123	O	-4.003600000000E-01	-4.283400000000E-01	-3.398600000000E-01
	O124	O	4.003600000000E-01	4.283400000000E-01	-3.398600000000E-01
	O125	O	-4.283400000000E-01	4.003600000000E-01	-3.398600000000E-01
	O126	O	4.283400000000E-01	-4.003600000000E-01	-3.398600000000E-01
	O127	O	-7.166000000000E-02	-9.964000000000E-02	3.398600000000E-01
	O128	O	7.166000000000E-02	9.964000000000E-02	3.398600000000E-01
	O129	O	-9.964000000000E-02	7.166000000000E-02	-3.398600000000E-01
	O130	O	9.964000000000E-02	-7.166000000000E-02	-3.398600000000E-01
	O131	O	4.003600000000E-01	4.283400000000E-01	3.398600000000E-01
	O132	O	-4.003600000000E-01	-4.283400000000E-01	3.398600000000E-01
	O133	O	4.283400000000E-01	-4.003600000000E-01	3.398600000000E-01
	O134	O	-4.283400000000E-01	4.003600000000E-01	3.398600000000E-01
	O135	O	7.166000000000E-02	9.964000000000E-02	-3.398600000000E-01
	O136	O	-7.166000000000E-02	-9.964000000000E-02	-3.398600000000E-01
	O137	O	2.738000000000E-02	-1.676400000000E-01	-5.000000000000E-01
	O138	O	-2.738000000000E-02	1.676400000000E-01	-5.000000000000E-01
	O139	O	-4.726200000000E-01	-3.323600000000E-01	-5.000000000000E-01
	O140	O	4.726200000000E-01	3.323600000000E-01	-5.000000000000E-01
	O141	O	-3.323600000000E-01	4.726200000000E-01	-5.000000000000E-01
	O142	O	3.323600000000E-01	-4.726200000000E-01	-5.000000000000E-01
	O143	O	-1.676400000000E-01	-2.738000000000E-02	-5.000000000000E-01
	O144	O	1.676400000000E-01	2.738000000000E-02	-5.000000000000E-01
