data IRN
_chemical_name_common		'IRN'
_cell_length_a		15.81820120
_cell_length_b		15.81820120
_cell_length_c		15.81820120
_cell_angle_alpha		103.245708
_cell_angle_beta		108.616612
_cell_angle_gamma		116.848853
_space group_name_H-M_alt		'P 1'
_space_group_IT_number		1

loop_
	_atom_site_label
	_atom_site_type_symbol
	_atom_site_fract_x
	_atom_site_fract_y
	_atom_site_fract_z
	Si1	Si	2.973700000000E-01	4.120200000000E-01	3.536900000000E-01
	Si2	Si	5.833000000000E-02	-5.632000000000E-02	-3.536900000000E-01
	Si3	Si	-2.973700000000E-01	5.632000000000E-02	1.146500000000E-01
	Si4	Si	-5.833000000000E-02	-4.120200000000E-01	-1.146500000000E-01
	Si5	Si	-2.973700000000E-01	-4.120200000000E-01	-3.536900000000E-01
	Si6	Si	-5.833000000000E-02	5.632000000000E-02	3.536900000000E-01
	Si7	Si	2.973700000000E-01	-5.632000000000E-02	-1.146500000000E-01
	Si8	Si	5.833000000000E-02	4.120200000000E-01	1.146500000000E-01
	Si9	Si	-4.402500000000E-01	3.445300000000E-01	-4.533400000000E-01
	Si10	Si	-2.021300000000E-01	1.309000000000E-02	4.533400000000E-01
	Si11	Si	4.402500000000E-01	-1.309000000000E-02	-2.152200000000E-01
	Si12	Si	2.021300000000E-01	-3.445300000000E-01	2.152200000000E-01
	Si13	Si	4.402500000000E-01	-3.445300000000E-01	4.533400000000E-01
	Si14	Si	2.021300000000E-01	-1.309000000000E-02	-4.533400000000E-01
	Si15	Si	-4.402500000000E-01	1.309000000000E-02	2.152200000000E-01
	Si16	Si	-2.021300000000E-01	3.445300000000E-01	-2.152200000000E-01
	Si17	Si	3.269500000000E-01	2.327000000000E-01	3.687100000000E-01
	Si18	Si	-1.360100000000E-01	-4.176000000000E-02	-3.687100000000E-01
	Si19	Si	-3.269500000000E-01	4.176000000000E-02	-9.425000000000E-02
	Si20	Si	1.360100000000E-01	-2.327000000000E-01	9.425000000000E-02
	Si21	Si	-3.269500000000E-01	-2.327000000000E-01	-3.687100000000E-01
	Si22	Si	1.360100000000E-01	4.176000000000E-02	3.687100000000E-01
	Si23	Si	3.269500000000E-01	-4.176000000000E-02	9.425000000000E-02
	Si24	Si	-1.360100000000E-01	2.327000000000E-01	-9.425000000000E-02
	Si25	Si	4.055000000000E-01	-3.472800000000E-01	2.472200000000E-01
	Si26	Si	4.055000000000E-01	1.582800000000E-01	-2.472200000000E-01
	Si27	Si	-4.055000000000E-01	-1.582800000000E-01	2.472200000000E-01
	Si28	Si	-4.055000000000E-01	3.472800000000E-01	-2.472200000000E-01
	Si29	Si	2.632100000000E-01	4.116700000000E-01	1.484600000000E-01
	Si30	Si	2.632100000000E-01	1.147500000000E-01	-1.484600000000E-01
	Si31	Si	-2.632100000000E-01	-1.147500000000E-01	1.484600000000E-01
	Si32	Si	-2.632100000000E-01	-4.116700000000E-01	-1.484600000000E-01
	Si33	Si	-2.374700000000E-01	3.436700000000E-01	-4.188600000000E-01
	Si34	Si	-2.374700000000E-01	1.813900000000E-01	4.188600000000E-01
	Si35	Si	2.374700000000E-01	-1.813900000000E-01	-4.188600000000E-01
	Si36	Si	2.374700000000E-01	-3.436700000000E-01	4.188600000000E-01
	Si37	Si	-9.292000000000E-02	-4.098900000000E-01	-3.169700000000E-01
	Si38	Si	-9.292000000000E-02	2.240500000000E-01	3.169700000000E-01
	Si39	Si	9.292000000000E-02	-2.240500000000E-01	-3.169700000000E-01
	Si40	Si	9.292000000000E-02	4.098900000000E-01	3.169700000000E-01
	Si41	Si	2.348600000000E-01	9.328000000000E-02	1.415800000000E-01
	Si42	Si	-4.830000000000E-02	9.328000000000E-02	-1.415800000000E-01
	Si43	Si	-2.348600000000E-01	-9.328000000000E-02	-1.415800000000E-01
	Si44	Si	4.830000000000E-02	-9.328000000000E-02	1.415800000000E-01
	Si45	Si	2.066200000000E-01	2.066200000000E-01	-8.855558299207E-19
	Si46	Si	-2.066200000000E-01	-2.066200000000E-01	1.876802990859E-17
	O47	O	3.915400000000E-01	-4.661300000000E-01	4.308100000000E-01
	O48	O	1.030600000000E-01	-3.927000000000E-02	-4.308100000000E-01
	O49	O	-3.915400000000E-01	3.927000000000E-02	1.423300000000E-01
	O50	O	-1.030600000000E-01	4.661300000000E-01	-1.423300000000E-01
	O51	O	-3.915400000000E-01	4.661300000000E-01	-4.308100000000E-01
	O52	O	-1.030600000000E-01	3.927000000000E-02	4.308100000000E-01
	O53	O	3.915400000000E-01	-3.927000000000E-02	-1.423300000000E-01
	O54	O	1.030600000000E-01	-4.661300000000E-01	1.423300000000E-01
	O55	O	2.884600000000E-01	3.912100000000E-01	2.457700000000E-01
	O56	O	1.454400000000E-01	4.269000000000E-02	-2.457700000000E-01
	O57	O	-2.884600000000E-01	-4.269000000000E-02	1.027500000000E-01
	O58	O	-1.454400000000E-01	-3.912100000000E-01	-1.027500000000E-01
	O59	O	-2.884600000000E-01	-3.912100000000E-01	-2.457700000000E-01
	O60	O	-1.454400000000E-01	-4.269000000000E-02	2.457700000000E-01
	O61	O	2.884600000000E-01	4.269000000000E-02	-1.027500000000E-01
	O62	O	1.454400000000E-01	3.912100000000E-01	1.027500000000E-01
	O63	O	3.252200000000E-01	3.362600000000E-01	3.899600000000E-01
	O64	O	-5.370000000000E-02	-6.474000000000E-02	-3.899600000000E-01
	O65	O	-3.252200000000E-01	6.474000000000E-02	1.104000000000E-02
	O66	O	5.370000000000E-02	-3.362600000000E-01	-1.104000000000E-02
	O67	O	-3.252200000000E-01	-3.362600000000E-01	-3.899600000000E-01
	O68	O	5.370000000000E-02	6.474000000000E-02	3.899600000000E-01
	O69	O	3.252200000000E-01	-6.474000000000E-02	-1.104000000000E-02
	O70	O	-5.370000000000E-02	3.362600000000E-01	1.104000000000E-02
	O71	O	1.823000000000E-01	3.834000000000E-01	3.442200000000E-01
	O72	O	3.918000000000E-02	-1.619200000000E-01	-3.442200000000E-01
	O73	O	-1.823000000000E-01	1.619200000000E-01	2.011000000000E-01
	O74	O	-3.918000000000E-02	-3.834000000000E-01	-2.011000000000E-01
	O75	O	-1.823000000000E-01	-3.834000000000E-01	-3.442200000000E-01
	O76	O	-3.918000000000E-02	1.619200000000E-01	3.442200000000E-01
	O77	O	1.823000000000E-01	-1.619200000000E-01	-2.011000000000E-01
	O78	O	3.918000000000E-02	3.834000000000E-01	2.011000000000E-01
	O79	O	-3.579000000000E-01	3.169600000000E-01	-4.675600000000E-01
	O80	O	-2.154800000000E-01	1.096600000000E-01	4.675600000000E-01
	O81	O	3.579000000000E-01	-1.096600000000E-01	-3.251400000000E-01
	O82	O	2.154800000000E-01	-3.169600000000E-01	3.251400000000E-01
	O83	O	3.579000000000E-01	-3.169600000000E-01	4.675600000000E-01
	O84	O	2.154800000000E-01	-1.096600000000E-01	-4.675600000000E-01
	O85	O	-3.579000000000E-01	1.096600000000E-01	3.251400000000E-01
	O86	O	-2.154800000000E-01	3.169600000000E-01	-3.251400000000E-01
	O87	O	-4.554200000000E-01	3.251700000000E-01	-3.621100000000E-01
	O88	O	-3.127200000000E-01	-9.331000000000E-02	3.621100000000E-01
	O89	O	4.554200000000E-01	9.331000000000E-02	-2.194100000000E-01
	O90	O	3.127200000000E-01	-3.251700000000E-01	2.194100000000E-01
	O91	O	4.554200000000E-01	-3.251700000000E-01	3.621100000000E-01
	O92	O	3.127200000000E-01	9.331000000000E-02	-3.621100000000E-01
	O93	O	-4.554200000000E-01	-9.331000000000E-02	2.194100000000E-01
	O94	O	-3.127200000000E-01	3.251700000000E-01	-2.194100000000E-01
	O95	O	4.454400000000E-01	2.676500000000E-01	4.451900000000E-01
	O96	O	-1.775400000000E-01	2.500000000000E-04	-4.451900000000E-01
	O97	O	-4.454400000000E-01	-2.500000000000E-04	-1.777900000000E-01
	O98	O	1.775400000000E-01	-2.676500000000E-01	1.777900000000E-01
	O99	O	-4.454400000000E-01	-2.676500000000E-01	-4.451900000000E-01
	O100	O	1.775400000000E-01	-2.500000000000E-04	4.451900000000E-01
	O101	O	4.454400000000E-01	2.500000000000E-04	1.777900000000E-01
	O102	O	-1.775400000000E-01	2.676500000000E-01	-1.777900000000E-01
	O103	O	1.170900000000E-01	1.094917330006E-18	1.170900000000E-01
	O104	O	-1.170900000000E-01	3.347721890874E-18	-1.170900000000E-01
	O105	O	3.007500000000E-01	1.787800000000E-01	2.560300000000E-01
	O106	O	-7.725000000000E-02	4.472000000000E-02	-2.560300000000E-01
	O107	O	-3.007500000000E-01	-4.472000000000E-02	-1.219700000000E-01
	O108	O	7.725000000000E-02	-1.787800000000E-01	1.219700000000E-01
	O109	O	-3.007500000000E-01	-1.787800000000E-01	-2.560300000000E-01
	O110	O	7.725000000000E-02	-4.472000000000E-02	2.560300000000E-01
	O111	O	3.007500000000E-01	4.472000000000E-02	1.219700000000E-01
	O112	O	-7.725000000000E-02	1.787800000000E-01	-1.219700000000E-01
	O113	O	2.216700000000E-01	1.505200000000E-01	7.115000000000E-02
	O114	O	7.937000000000E-02	1.505200000000E-01	-7.115000000000E-02
	O115	O	-2.216700000000E-01	-1.505200000000E-01	-7.115000000000E-02
	O116	O	-7.937000000000E-02	-1.505200000000E-01	7.115000000000E-02
	O117	O	2.384700000000E-01	1.505000000000E-01	3.889700000000E-01
	O118	O	-2.384700000000E-01	-1.505000000000E-01	-3.889700000000E-01
	O119	O	-2.384700000000E-01	1.505000000000E-01	-8.797000000000E-02
	O120	O	2.384700000000E-01	-1.505000000000E-01	8.797000000000E-02
	O121	O	-1.499700000000E-01	4.667600000000E-01	-3.832700000000E-01
	O122	O	-1.499700000000E-01	2.333000000000E-01	3.832700000000E-01
	O123	O	1.499700000000E-01	-2.333000000000E-01	-3.832700000000E-01
	O124	O	1.499700000000E-01	-4.667600000000E-01	3.832700000000E-01
	O125	O	-2.250900000000E-01	2.749100000000E-01	5.000000000000E-01
	O126	O	2.250900000000E-01	-2.749100000000E-01	-5.000000000000E-01
	O127	O	3.539900000000E-01	-4.683400000000E-01	1.776700000000E-01
	O128	O	3.539900000000E-01	1.763200000000E-01	-1.776700000000E-01
	O129	O	-3.539900000000E-01	-1.763200000000E-01	1.776700000000E-01
	O130	O	-3.539900000000E-01	4.683400000000E-01	-1.776700000000E-01
	O131	O	-5.000000000000E-01	-2.716700000000E-01	2.283300000000E-01
	O132	O	5.000000000000E-01	2.716700000000E-01	-2.283300000000E-01
	O133	O	2.635100000000E-01	3.300300000000E-01	6.652000000000E-02
	O134	O	2.635100000000E-01	1.969900000000E-01	-6.652000000000E-02
	O135	O	-2.635100000000E-01	-1.969900000000E-01	6.652000000000E-02
	O136	O	-2.635100000000E-01	-3.300300000000E-01	-6.652000000000E-02
	O137	O	-1.546284927752E-17	-3.409400000000E-01	-3.409400000000E-01
	O138	O	-3.546558780731E-17	3.409400000000E-01	3.409400000000E-01
