data ITE
_chemical_name_common		'ITE'
_cell_length_a		11.47612113
_cell_length_b		11.47612113
_cell_length_c		20.00900000
_cell_angle_alpha		90.000000
_cell_angle_beta		90.000000
_cell_angle_gamma		129.426623
_space group_name_H-M_alt		'P 1'
_space_group_IT_number		1

loop_
	_atom_site_label
	_atom_site_type_symbol
	_atom_site_fract_x
	_atom_site_fract_y
	_atom_site_fract_z
	O1	O	1.287000000000E-01	-3.941000000000E-01	1.438000000000E-01
	O2	O	-1.287000000000E-01	3.941000000000E-01	-3.562000000000E-01
	O3	O	3.941000000000E-01	-1.287000000000E-01	-1.438000000000E-01
	O4	O	-3.941000000000E-01	1.287000000000E-01	3.562000000000E-01
	O5	O	-1.287000000000E-01	3.941000000000E-01	-1.438000000000E-01
	O6	O	1.287000000000E-01	-3.941000000000E-01	3.562000000000E-01
	O7	O	-3.941000000000E-01	1.287000000000E-01	1.438000000000E-01
	O8	O	3.941000000000E-01	-1.287000000000E-01	-3.562000000000E-01
	O9	O	2.664000000000E-01	-3.964000000000E-01	2.500000000000E-01
	O10	O	-2.664000000000E-01	3.964000000000E-01	-2.500000000000E-01
	O11	O	3.964000000000E-01	-2.664000000000E-01	-2.500000000000E-01
	O12	O	-3.964000000000E-01	2.664000000000E-01	2.500000000000E-01
	O13	O	4.203000000000E-01	-1.679000000000E-01	1.640000000000E-01
	O14	O	-4.203000000000E-01	1.679000000000E-01	-3.360000000000E-01
	O15	O	1.679000000000E-01	-4.203000000000E-01	-1.640000000000E-01
	O16	O	-1.679000000000E-01	4.203000000000E-01	3.360000000000E-01
	O17	O	-4.203000000000E-01	1.679000000000E-01	-1.640000000000E-01
	O18	O	4.203000000000E-01	-1.679000000000E-01	3.360000000000E-01
	O19	O	-1.679000000000E-01	4.203000000000E-01	1.640000000000E-01
	O20	O	1.679000000000E-01	-4.203000000000E-01	-3.360000000000E-01
	O21	O	3.290000000000E-01	-4.376000000000E-01	1.288000000000E-01
	O22	O	-3.290000000000E-01	4.376000000000E-01	-3.712000000000E-01
	O23	O	4.376000000000E-01	-3.290000000000E-01	-1.288000000000E-01
	O24	O	-4.376000000000E-01	3.290000000000E-01	3.712000000000E-01
	O25	O	-3.290000000000E-01	4.376000000000E-01	-1.288000000000E-01
	O26	O	3.290000000000E-01	-4.376000000000E-01	3.712000000000E-01
	O27	O	-4.376000000000E-01	3.290000000000E-01	1.288000000000E-01
	O28	O	4.376000000000E-01	-3.290000000000E-01	-3.712000000000E-01
	O29	O	-4.013000000000E-01	4.013000000000E-01	0.000000000000E+00
	O30	O	4.013000000000E-01	-4.013000000000E-01	-5.000000000000E-01
	O31	O	4.013000000000E-01	-4.013000000000E-01	0.000000000000E+00
	O32	O	-4.013000000000E-01	4.013000000000E-01	-5.000000000000E-01
	O33	O	4.222000000000E-01	4.222000000000E-01	7.580000000000E-02
	O34	O	-4.222000000000E-01	-4.222000000000E-01	-4.242000000000E-01
	O35	O	-4.222000000000E-01	-4.222000000000E-01	-7.580000000000E-02
	O36	O	4.222000000000E-01	4.222000000000E-01	4.242000000000E-01
	O37	O	3.367000000000E-01	1.527000000000E-01	4.360000000000E-02
	O38	O	-3.367000000000E-01	-1.527000000000E-01	-4.564000000000E-01
	O39	O	-1.527000000000E-01	-3.367000000000E-01	-4.360000000000E-02
	O40	O	1.527000000000E-01	3.367000000000E-01	4.564000000000E-01
	O41	O	-3.367000000000E-01	-1.527000000000E-01	-4.360000000000E-02
	O42	O	3.367000000000E-01	1.527000000000E-01	4.564000000000E-01
	O43	O	1.527000000000E-01	3.367000000000E-01	4.360000000000E-02
	O44	O	-1.527000000000E-01	-3.367000000000E-01	-4.564000000000E-01
	O45	O	-3.967000000000E-01	-5.070000000000E-02	5.880000000000E-02
	O46	O	3.967000000000E-01	5.070000000000E-02	-4.412000000000E-01
	O47	O	5.070000000000E-02	3.967000000000E-01	-5.880000000000E-02
	O48	O	-5.070000000000E-02	-3.967000000000E-01	4.412000000000E-01
	O49	O	3.967000000000E-01	5.070000000000E-02	-5.880000000000E-02
	O50	O	-3.967000000000E-01	-5.070000000000E-02	4.412000000000E-01
	O51	O	-5.070000000000E-02	-3.967000000000E-01	5.880000000000E-02
	O52	O	5.070000000000E-02	3.967000000000E-01	-4.412000000000E-01
	O53	O	3.699000000000E-01	-5.370000000000E-02	6.370000000000E-02
	O54	O	-3.699000000000E-01	5.370000000000E-02	-4.363000000000E-01
	O55	O	5.370000000000E-02	-3.699000000000E-01	-6.370000000000E-02
	O56	O	-5.370000000000E-02	3.699000000000E-01	4.363000000000E-01
	O57	O	-3.699000000000E-01	5.370000000000E-02	-6.370000000000E-02
	O58	O	3.699000000000E-01	-5.370000000000E-02	4.363000000000E-01
	O59	O	-5.370000000000E-02	3.699000000000E-01	6.370000000000E-02
	O60	O	5.370000000000E-02	-3.699000000000E-01	-4.363000000000E-01
	O61	O	1.278000000000E-01	-1.278000000000E-01	0.000000000000E+00
	O62	O	-1.278000000000E-01	1.278000000000E-01	-5.000000000000E-01
	O63	O	-1.278000000000E-01	1.278000000000E-01	0.000000000000E+00
	O64	O	1.278000000000E-01	-1.278000000000E-01	-5.000000000000E-01
	Si65	Si	2.860000000000E-01	-3.490000000000E-01	1.717000000000E-01
	Si66	Si	-2.860000000000E-01	3.490000000000E-01	-3.283000000000E-01
	Si67	Si	3.490000000000E-01	-2.860000000000E-01	-1.717000000000E-01
	Si68	Si	-3.490000000000E-01	2.860000000000E-01	3.283000000000E-01
	Si69	Si	-2.860000000000E-01	3.490000000000E-01	-1.717000000000E-01
	Si70	Si	2.860000000000E-01	-3.490000000000E-01	3.283000000000E-01
	Si71	Si	-3.490000000000E-01	2.860000000000E-01	1.717000000000E-01
	Si72	Si	3.490000000000E-01	-2.860000000000E-01	-3.283000000000E-01
	Si73	Si	4.799000000000E-01	3.265000000000E-01	6.200000000000E-02
	Si74	Si	-4.799000000000E-01	-3.265000000000E-01	-4.380000000000E-01
	Si75	Si	-3.265000000000E-01	-4.799000000000E-01	-6.200000000000E-02
	Si76	Si	3.265000000000E-01	4.799000000000E-01	4.380000000000E-01
	Si77	Si	-4.799000000000E-01	-3.265000000000E-01	-6.200000000000E-02
	Si78	Si	4.799000000000E-01	3.265000000000E-01	4.380000000000E-01
	Si79	Si	3.265000000000E-01	4.799000000000E-01	6.200000000000E-02
	Si80	Si	-3.265000000000E-01	-4.799000000000E-01	-4.380000000000E-01
	Si81	Si	4.999000000000E-01	-3.550000000000E-02	1.076000000000E-01
	Si82	Si	-4.999000000000E-01	3.550000000000E-02	-3.924000000000E-01
	Si83	Si	3.550000000000E-02	-4.999000000000E-01	-1.076000000000E-01
	Si84	Si	-3.550000000000E-02	4.999000000000E-01	3.924000000000E-01
	Si85	Si	-4.999000000000E-01	3.550000000000E-02	-1.076000000000E-01
	Si86	Si	4.999000000000E-01	-3.550000000000E-02	3.924000000000E-01
	Si87	Si	-3.550000000000E-02	4.999000000000E-01	1.076000000000E-01
	Si88	Si	3.550000000000E-02	-4.999000000000E-01	-3.924000000000E-01
	Si89	Si	3.077000000000E-01	5.300000000000E-03	1.210000000000E-02
	Si90	Si	-3.077000000000E-01	-5.300000000000E-03	-4.879000000000E-01
	Si91	Si	-5.300000000000E-03	-3.077000000000E-01	-1.210000000000E-02
	Si92	Si	5.300000000000E-03	3.077000000000E-01	4.879000000000E-01
	Si93	Si	-3.077000000000E-01	-5.300000000000E-03	-1.210000000000E-02
	Si94	Si	3.077000000000E-01	5.300000000000E-03	4.879000000000E-01
	Si95	Si	5.300000000000E-03	3.077000000000E-01	1.210000000000E-02
	Si96	Si	-5.300000000000E-03	-3.077000000000E-01	-4.879000000000E-01
