data ITH
_chemical_name_common		'ITH'
_cell_length_a		12.56600000
_cell_length_b		12.41900906
_cell_length_c		12.41900906
_cell_angle_alpha		56.006567
_cell_angle_beta		90.000000
_cell_angle_gamma		90.000000
_space group_name_H-M_alt		'P 1'
_space_group_IT_number		1

loop_
	_atom_site_label
	_atom_site_type_symbol
	_atom_site_fract_x
	_atom_site_fract_y
	_atom_site_fract_z
	O1	O	-3.179000000000E-01	-2.705000000000E-01	-4.490000000000E-02
	O2	O	3.179000000000E-01	-4.490000000000E-02	-2.705000000000E-01
	O3	O	3.179000000000E-01	-2.705000000000E-01	-4.490000000000E-02
	O4	O	-3.179000000000E-01	-4.490000000000E-02	-2.705000000000E-01
	O5	O	-3.598000000000E-01	3.490000000000E-02	3.490000000000E-02
	O6	O	3.598000000000E-01	3.490000000000E-02	3.490000000000E-02
	O7	O	-2.995000000000E-01	-2.027000000000E-01	1.199000000000E-01
	O8	O	2.995000000000E-01	1.199000000000E-01	-2.027000000000E-01
	O9	O	2.995000000000E-01	-2.027000000000E-01	1.199000000000E-01
	O10	O	-2.995000000000E-01	1.199000000000E-01	-2.027000000000E-01
	O11	O	-3.951000000000E-01	-6.900000000000E-03	3.829000000000E-01
	O12	O	3.951000000000E-01	3.829000000000E-01	-6.900000000000E-03
	O13	O	3.951000000000E-01	-6.900000000000E-03	3.829000000000E-01
	O14	O	-3.951000000000E-01	3.829000000000E-01	-6.900000000000E-03
	O15	O	-1.469000000000E-01	3.558000000000E-01	3.558000000000E-01
	O16	O	1.469000000000E-01	3.558000000000E-01	3.558000000000E-01
	O17	O	0.000000000000E+00	1.832000000000E-01	-4.998000000000E-01
	O18	O	0.000000000000E+00	-4.998000000000E-01	1.832000000000E-01
	O19	O	-3.525000000000E-01	-1.442000000000E-01	2.858000000000E-01
	O20	O	3.525000000000E-01	2.858000000000E-01	-1.442000000000E-01
	O21	O	3.525000000000E-01	-1.442000000000E-01	2.858000000000E-01
	O22	O	-3.525000000000E-01	2.858000000000E-01	-1.442000000000E-01
	O23	O	-1.962000000000E-01	-5.540000000000E-02	3.576000000000E-01
	O24	O	1.962000000000E-01	3.576000000000E-01	-5.540000000000E-02
	O25	O	1.962000000000E-01	-5.540000000000E-02	3.576000000000E-01
	O26	O	-1.962000000000E-01	3.576000000000E-01	-5.540000000000E-02
	O27	O	-3.186000000000E-01	-2.428000000000E-01	-4.674000000000E-01
	O28	O	3.186000000000E-01	-4.674000000000E-01	-2.428000000000E-01
	O29	O	3.186000000000E-01	-2.428000000000E-01	-4.674000000000E-01
	O30	O	-3.186000000000E-01	-4.674000000000E-01	-2.428000000000E-01
	O31	O	-1.606000000000E-01	1.186000000000E-01	4.122000000000E-01
	O32	O	1.606000000000E-01	4.122000000000E-01	1.186000000000E-01
	O33	O	1.606000000000E-01	1.186000000000E-01	4.122000000000E-01
	O34	O	-1.606000000000E-01	4.122000000000E-01	1.186000000000E-01
	O35	O	-5.000000000000E-01	-1.544000000000E-01	1.418000000000E-01
	O36	O	-5.000000000000E-01	1.418000000000E-01	-1.544000000000E-01
	O37	O	-1.902000000000E-01	-4.033000000000E-01	1.585000000000E-01
	O38	O	1.902000000000E-01	1.585000000000E-01	-4.033000000000E-01
	O39	O	1.902000000000E-01	-4.033000000000E-01	1.585000000000E-01
	O40	O	-1.902000000000E-01	1.585000000000E-01	-4.033000000000E-01
	O41	O	-5.000000000000E-01	3.817000000000E-01	3.817000000000E-01
	O42	O	0.000000000000E+00	1.380000000000E-02	3.666000000000E-01
	O43	O	0.000000000000E+00	3.666000000000E-01	1.380000000000E-02
	O44	O	3.956000000000E-01	1.919000000000E-01	-4.195000000000E-01
	O45	O	-3.956000000000E-01	-4.195000000000E-01	1.919000000000E-01
	O46	O	-3.956000000000E-01	1.919000000000E-01	-4.195000000000E-01
	O47	O	3.956000000000E-01	-4.195000000000E-01	1.919000000000E-01
	O48	O	-3.731000000000E-01	-2.559000000000E-01	-2.559000000000E-01
	O49	O	3.731000000000E-01	-2.559000000000E-01	-2.559000000000E-01
	O50	O	-5.000000000000E-01	1.913000000000E-01	1.913000000000E-01
	O51	O	-5.000000000000E-01	1.492000000000E-01	4.238000000000E-01
	O52	O	-5.000000000000E-01	4.238000000000E-01	1.492000000000E-01
	O53	O	-1.274000000000E-01	1.762000000000E-01	1.762000000000E-01
	O54	O	1.274000000000E-01	1.762000000000E-01	1.762000000000E-01
	O55	O	-5.000000000000E-01	-3.513000000000E-01	-3.513000000000E-01
	O56	O	-5.000000000000E-01	-1.606000000000E-01	-1.606000000000E-01
	Si57	Si	-5.000000000000E-01	2.281000000000E-01	4.915000000000E-01
	Si58	Si	-5.000000000000E-01	4.915000000000E-01	2.281000000000E-01
	Si59	Si	-1.212000000000E-01	6.310000000000E-02	3.287000000000E-01
	Si60	Si	1.212000000000E-01	3.287000000000E-01	6.310000000000E-02
	Si61	Si	1.212000000000E-01	6.310000000000E-02	3.287000000000E-01
	Si62	Si	-1.212000000000E-01	3.287000000000E-01	6.310000000000E-02
	Si63	Si	-3.157000000000E-01	-1.118000000000E-01	3.888000000000E-01
	Si64	Si	3.157000000000E-01	3.888000000000E-01	-1.118000000000E-01
	Si65	Si	3.157000000000E-01	-1.118000000000E-01	3.888000000000E-01
	Si66	Si	-3.157000000000E-01	3.888000000000E-01	-1.118000000000E-01
	Si67	Si	-5.000000000000E-01	8.160000000000E-02	3.450000000000E-01
	Si68	Si	-5.000000000000E-01	3.450000000000E-01	8.160000000000E-02
	Si69	Si	-1.249000000000E-01	2.048000000000E-01	4.660000000000E-01
	Si70	Si	1.249000000000E-01	4.660000000000E-01	2.048000000000E-01
	Si71	Si	1.249000000000E-01	2.048000000000E-01	4.660000000000E-01
	Si72	Si	-1.249000000000E-01	4.660000000000E-01	2.048000000000E-01
	Si73	Si	-3.000000000000E-01	-3.235000000000E-01	1.053000000000E-01
	Si74	Si	3.000000000000E-01	1.053000000000E-01	-3.235000000000E-01
	Si75	Si	3.000000000000E-01	-3.235000000000E-01	1.053000000000E-01
	Si76	Si	-3.000000000000E-01	1.053000000000E-01	-3.235000000000E-01
	Si77	Si	-3.781000000000E-01	-1.168000000000E-01	1.456000000000E-01
	Si78	Si	3.781000000000E-01	1.456000000000E-01	-1.168000000000E-01
	Si79	Si	3.781000000000E-01	-1.168000000000E-01	1.456000000000E-01
	Si80	Si	-3.781000000000E-01	1.456000000000E-01	-1.168000000000E-01
	Si81	Si	-3.778000000000E-01	-3.292000000000E-01	-3.292000000000E-01
	Si82	Si	3.778000000000E-01	-3.292000000000E-01	-3.292000000000E-01
	Si83	Si	-3.777000000000E-01	-1.826000000000E-01	-1.826000000000E-01
	Si84	Si	3.777000000000E-01	-1.826000000000E-01	-1.826000000000E-01
