data ITT
_chemical_name_common		'ITT'
_cell_length_a		18.86773000
_cell_length_b		18.86773000
_cell_length_c		11.63328000
_cell_angle_alpha		90.000000
_cell_angle_beta		90.000000
_cell_angle_gamma		120.000000
_space group_name_H-M_alt		'P 1'
_space_group_IT_number		1

loop_
	_atom_site_label
	_atom_site_type_symbol
	_atom_site_fract_x
	_atom_site_fract_y
	_atom_site_fract_z
	Si1	Si	3.711300000000E-01	4.661200000000E-01	3.661300000000E-01
	Si2	Si	-3.711300000000E-01	-4.661200000000E-01	3.661300000000E-01
	Si3	Si	-4.661200000000E-01	-9.499000000000E-02	3.661300000000E-01
	Si4	Si	9.499000000000E-02	-3.711300000000E-01	3.661300000000E-01
	Si5	Si	-9.499000000000E-02	3.711300000000E-01	3.661300000000E-01
	Si6	Si	4.661200000000E-01	9.499000000000E-02	3.661300000000E-01
	Si7	Si	-9.499000000000E-02	-4.661200000000E-01	-3.661300000000E-01
	Si8	Si	-3.711300000000E-01	9.499000000000E-02	-3.661300000000E-01
	Si9	Si	4.661200000000E-01	3.711300000000E-01	-3.661300000000E-01
	Si10	Si	-4.661200000000E-01	-3.711300000000E-01	-3.661300000000E-01
	Si11	Si	3.711300000000E-01	-9.499000000000E-02	-3.661300000000E-01
	Si12	Si	9.499000000000E-02	4.661200000000E-01	-3.661300000000E-01
	Si13	Si	-3.711300000000E-01	-4.661200000000E-01	-3.661300000000E-01
	Si14	Si	3.711300000000E-01	4.661200000000E-01	-3.661300000000E-01
	Si15	Si	4.661200000000E-01	9.499000000000E-02	-3.661300000000E-01
	Si16	Si	-9.499000000000E-02	3.711300000000E-01	-3.661300000000E-01
	Si17	Si	9.499000000000E-02	-3.711300000000E-01	-3.661300000000E-01
	Si18	Si	-4.661200000000E-01	-9.499000000000E-02	-3.661300000000E-01
	Si19	Si	9.499000000000E-02	4.661200000000E-01	3.661300000000E-01
	Si20	Si	3.711300000000E-01	-9.499000000000E-02	3.661300000000E-01
	Si21	Si	-4.661200000000E-01	-3.711300000000E-01	3.661300000000E-01
	Si22	Si	4.661200000000E-01	3.711300000000E-01	3.661300000000E-01
	Si23	Si	-3.711300000000E-01	9.499000000000E-02	3.661300000000E-01
	Si24	Si	-9.499000000000E-02	-4.661200000000E-01	3.661300000000E-01
	Si25	Si	2.440100000000E-01	4.880200000000E-01	2.487200000000E-01
	Si26	Si	-2.440100000000E-01	-4.880200000000E-01	2.487200000000E-01
	Si27	Si	-4.880200000000E-01	-2.440100000000E-01	2.487200000000E-01
	Si28	Si	2.440100000000E-01	-2.440100000000E-01	2.487200000000E-01
	Si29	Si	-2.440100000000E-01	2.440100000000E-01	2.487200000000E-01
	Si30	Si	4.880200000000E-01	2.440100000000E-01	2.487200000000E-01
	Si31	Si	-2.440100000000E-01	-4.880200000000E-01	-2.487200000000E-01
	Si32	Si	-2.440100000000E-01	2.440100000000E-01	-2.487200000000E-01
	Si33	Si	4.880200000000E-01	2.440100000000E-01	-2.487200000000E-01
	Si34	Si	-4.880200000000E-01	-2.440100000000E-01	-2.487200000000E-01
	Si35	Si	2.440100000000E-01	-2.440100000000E-01	-2.487200000000E-01
	Si36	Si	2.440100000000E-01	4.880200000000E-01	-2.487200000000E-01
	Si37	Si	-2.810800000000E-01	4.378400000000E-01	0.000000000000E+00
	Si38	Si	2.810800000000E-01	-4.378400000000E-01	0.000000000000E+00
	Si39	Si	-4.378400000000E-01	2.810800000000E-01	0.000000000000E+00
	Si40	Si	-2.810800000000E-01	2.810800000000E-01	0.000000000000E+00
	Si41	Si	2.810800000000E-01	-2.810800000000E-01	0.000000000000E+00
	Si42	Si	4.378400000000E-01	-2.810800000000E-01	0.000000000000E+00
	Si43	Si	3.333333333333E-01	-3.333333333333E-01	3.619700000000E-01
	Si44	Si	-3.333333333333E-01	3.333333333333E-01	3.619700000000E-01
	Si45	Si	-3.333333333333E-01	3.333333333333E-01	-3.619700000000E-01
	Si46	Si	3.333333333333E-01	-3.333333333333E-01	-3.619700000000E-01
	O47	O	2.908200000000E-01	4.406000000000E-01	2.891300000000E-01
	O48	O	-2.908200000000E-01	-4.406000000000E-01	2.891300000000E-01
	O49	O	-4.406000000000E-01	-1.497800000000E-01	2.891300000000E-01
	O50	O	1.497800000000E-01	-2.908200000000E-01	2.891300000000E-01
	O51	O	-1.497800000000E-01	2.908200000000E-01	2.891300000000E-01
	O52	O	4.406000000000E-01	1.497800000000E-01	2.891300000000E-01
	O53	O	-1.497800000000E-01	-4.406000000000E-01	-2.891300000000E-01
	O54	O	-2.908200000000E-01	1.497800000000E-01	-2.891300000000E-01
	O55	O	4.406000000000E-01	2.908200000000E-01	-2.891300000000E-01
	O56	O	-4.406000000000E-01	-2.908200000000E-01	-2.891300000000E-01
	O57	O	2.908200000000E-01	-1.497800000000E-01	-2.891300000000E-01
	O58	O	1.497800000000E-01	4.406000000000E-01	-2.891300000000E-01
	O59	O	-2.908200000000E-01	-4.406000000000E-01	-2.891300000000E-01
	O60	O	2.908200000000E-01	4.406000000000E-01	-2.891300000000E-01
	O61	O	4.406000000000E-01	1.497800000000E-01	-2.891300000000E-01
	O62	O	-1.497800000000E-01	2.908200000000E-01	-2.891300000000E-01
	O63	O	1.497800000000E-01	-2.908200000000E-01	-2.891300000000E-01
	O64	O	-4.406000000000E-01	-1.497800000000E-01	-2.891300000000E-01
	O65	O	1.497800000000E-01	4.406000000000E-01	2.891300000000E-01
	O66	O	2.908200000000E-01	-1.497800000000E-01	2.891300000000E-01
	O67	O	-4.406000000000E-01	-2.908200000000E-01	2.891300000000E-01
	O68	O	4.406000000000E-01	2.908200000000E-01	2.891300000000E-01
	O69	O	-2.908200000000E-01	1.497800000000E-01	2.891300000000E-01
	O70	O	-1.497800000000E-01	-4.406000000000E-01	2.891300000000E-01
	O71	O	3.465100000000E-01	4.571200000000E-01	-5.000000000000E-01
	O72	O	-3.465100000000E-01	-4.571200000000E-01	-5.000000000000E-01
	O73	O	-4.571200000000E-01	-1.106100000000E-01	-5.000000000000E-01
	O74	O	1.106100000000E-01	-3.465100000000E-01	-5.000000000000E-01
	O75	O	-1.106100000000E-01	3.465100000000E-01	-5.000000000000E-01
	O76	O	4.571200000000E-01	1.106100000000E-01	-5.000000000000E-01
	O77	O	-1.106100000000E-01	-4.571200000000E-01	-5.000000000000E-01
	O78	O	-3.465100000000E-01	1.106100000000E-01	-5.000000000000E-01
	O79	O	4.571200000000E-01	3.465100000000E-01	-5.000000000000E-01
	O80	O	-4.571200000000E-01	-3.465100000000E-01	-5.000000000000E-01
	O81	O	3.465100000000E-01	-1.106100000000E-01	-5.000000000000E-01
	O82	O	1.106100000000E-01	4.571200000000E-01	-5.000000000000E-01
	O83	O	4.057800000000E-01	0.000000000000E+00	3.359900000000E-01
	O84	O	-4.057800000000E-01	-2.775557561563E-17	3.359900000000E-01
	O85	O	2.717815284098E-17	4.057800000000E-01	3.359900000000E-01
	O86	O	-4.057800000000E-01	-4.057800000000E-01	3.359900000000E-01
	O87	O	4.057800000000E-01	4.057800000000E-01	3.359900000000E-01
	O88	O	-2.717815284098E-17	-4.057800000000E-01	3.359900000000E-01
	O89	O	4.057800000000E-01	2.775557561563E-17	-3.359900000000E-01
	O90	O	-4.057800000000E-01	-4.057800000000E-01	-3.359900000000E-01
	O91	O	-2.717815284098E-17	4.057800000000E-01	-3.359900000000E-01
	O92	O	2.717815284098E-17	-4.057800000000E-01	-3.359900000000E-01
	O93	O	4.057800000000E-01	4.057800000000E-01	-3.359900000000E-01
	O94	O	-4.057800000000E-01	-2.775557561563E-17	-3.359900000000E-01
	O95	O	-4.408300000000E-01	1.183400000000E-01	3.399500000000E-01
	O96	O	4.408300000000E-01	-1.183400000000E-01	3.399500000000E-01
	O97	O	-1.183400000000E-01	4.408300000000E-01	3.399500000000E-01
	O98	O	-4.408300000000E-01	4.408300000000E-01	3.399500000000E-01
	O99	O	4.408300000000E-01	-4.408300000000E-01	3.399500000000E-01
	O100	O	1.183400000000E-01	-4.408300000000E-01	3.399500000000E-01
	O101	O	4.408300000000E-01	-1.183400000000E-01	-3.399500000000E-01
	O102	O	4.408300000000E-01	-4.408300000000E-01	-3.399500000000E-01
	O103	O	1.183400000000E-01	-4.408300000000E-01	-3.399500000000E-01
	O104	O	-1.183400000000E-01	4.408300000000E-01	-3.399500000000E-01
	O105	O	-4.408300000000E-01	4.408300000000E-01	-3.399500000000E-01
	O106	O	-4.408300000000E-01	1.183400000000E-01	-3.399500000000E-01
	O107	O	2.869600000000E-01	-4.260800000000E-01	3.161500000000E-01
	O108	O	-2.869600000000E-01	4.260800000000E-01	3.161500000000E-01
	O109	O	4.260800000000E-01	-2.869600000000E-01	3.161500000000E-01
	O110	O	2.869600000000E-01	-2.869600000000E-01	3.161500000000E-01
	O111	O	-2.869600000000E-01	2.869600000000E-01	3.161500000000E-01
	O112	O	-4.260800000000E-01	2.869600000000E-01	3.161500000000E-01
	O113	O	-2.869600000000E-01	4.260800000000E-01	-3.161500000000E-01
	O114	O	-2.869600000000E-01	2.869600000000E-01	-3.161500000000E-01
	O115	O	-4.260800000000E-01	2.869600000000E-01	-3.161500000000E-01
	O116	O	4.260800000000E-01	-2.869600000000E-01	-3.161500000000E-01
	O117	O	2.869600000000E-01	-2.869600000000E-01	-3.161500000000E-01
	O118	O	2.869600000000E-01	-4.260800000000E-01	-3.161500000000E-01
	O119	O	3.333333333333E-01	-3.333333333333E-01	-5.000000000000E-01
	O120	O	-3.333333333333E-01	3.333333333333E-01	-5.000000000000E-01
	O121	O	3.793000000000E-01	-2.414000000000E-01	0.000000000000E+00
	O122	O	-3.793000000000E-01	2.414000000000E-01	0.000000000000E+00
	O123	O	2.414000000000E-01	-3.793000000000E-01	0.000000000000E+00
	O124	O	3.793000000000E-01	-3.793000000000E-01	0.000000000000E+00
	O125	O	-3.793000000000E-01	3.793000000000E-01	0.000000000000E+00
	O126	O	-2.414000000000E-01	3.793000000000E-01	0.000000000000E+00
	O127	O	-2.524000000000E-01	4.952000000000E-01	1.125000000000E-01
	O128	O	2.524000000000E-01	-4.952000000000E-01	1.125000000000E-01
	O129	O	-4.952000000000E-01	2.524000000000E-01	1.125000000000E-01
	O130	O	-2.524000000000E-01	2.524000000000E-01	1.125000000000E-01
	O131	O	2.524000000000E-01	-2.524000000000E-01	1.125000000000E-01
	O132	O	4.952000000000E-01	-2.524000000000E-01	1.125000000000E-01
	O133	O	2.524000000000E-01	-4.952000000000E-01	-1.125000000000E-01
	O134	O	2.524000000000E-01	-2.524000000000E-01	-1.125000000000E-01
	O135	O	4.952000000000E-01	-2.524000000000E-01	-1.125000000000E-01
	O136	O	-4.952000000000E-01	2.524000000000E-01	-1.125000000000E-01
	O137	O	-2.524000000000E-01	2.524000000000E-01	-1.125000000000E-01
	O138	O	-2.524000000000E-01	4.952000000000E-01	-1.125000000000E-01
