data ITW
_chemical_name_common		'ITW'
_cell_length_a		18.30418761
_cell_length_b		9.15209380
_cell_length_c		8.95400000
_cell_angle_alpha		81.146286
_cell_angle_beta		98.853714
_cell_angle_gamma		69.627081
_space group_name_H-M_alt		'P 1'
_space_group_IT_number		1

loop_
	_atom_site_label
	_atom_site_type_symbol
	_atom_site_fract_x
	_atom_site_fract_y
	_atom_site_fract_z
	O1	O	-1.367000000000E-01	-2.734000000000E-01	0.000000000000E+00
	O2	O	1.367000000000E-01	2.734000000000E-01	0.000000000000E+00
	O3	O	2.367500000000E-01	-1.453000000000E-01	-2.285000000000E-01
	O4	O	-7.265000000000E-02	4.735000000000E-01	2.285000000000E-01
	O5	O	-2.367500000000E-01	1.453000000000E-01	2.285000000000E-01
	O6	O	7.265000000000E-02	-4.735000000000E-01	-2.285000000000E-01
	O7	O	-1.583000000000E-01	-1.000000000000E-02	-1.989000000000E-01
	O8	O	-5.000000000000E-03	-3.166000000000E-01	1.989000000000E-01
	O9	O	1.583000000000E-01	1.000000000000E-02	1.989000000000E-01
	O10	O	5.000000000000E-03	3.166000000000E-01	-1.989000000000E-01
	O11	O	2.500000000000E-01	2.230935642411E-16	0.000000000000E+00
	O12	O	-1.022976882379E-17	-5.000000000000E-01	0.000000000000E+00
	O13	O	-8.690000000000E-02	-4.720000000000E-02	2.686000000000E-01
	O14	O	-2.360000000000E-02	-1.738000000000E-01	-2.686000000000E-01
	O15	O	8.690000000000E-02	4.720000000000E-02	-2.686000000000E-01
	O16	O	2.360000000000E-02	1.738000000000E-01	2.686000000000E-01
	O17	O	-1.458000000000E-01	2.380000000000E-02	-4.902000000000E-01
	O18	O	1.190000000000E-02	-2.916000000000E-01	4.902000000000E-01
	O19	O	1.458000000000E-01	-2.380000000000E-02	4.902000000000E-01
	O20	O	-1.190000000000E-02	2.916000000000E-01	-4.902000000000E-01
	O21	O	-1.209500000000E-01	2.419000000000E-01	3.196000000000E-01
	O22	O	1.209500000000E-01	-2.419000000000E-01	-3.196000000000E-01
	O23	O	-6.840000000000E-02	1.368000000000E-01	-2.965000000000E-01
	O24	O	6.840000000000E-02	-1.368000000000E-01	2.965000000000E-01
	Si25	Si	-2.019500000000E-01	-1.071000000000E-01	-1.061000000000E-01
	Si26	Si	-5.355000000000E-02	-4.039000000000E-01	1.061000000000E-01
	Si27	Si	2.019500000000E-01	1.071000000000E-01	1.061000000000E-01
	Si28	Si	5.355000000000E-02	4.039000000000E-01	-1.061000000000E-01
	Si29	Si	-1.477000000000E-01	9.120000000000E-02	3.317000000000E-01
	Si30	Si	4.560000000000E-02	-2.954000000000E-01	-3.317000000000E-01
	Si31	Si	1.477000000000E-01	-9.120000000000E-02	-3.317000000000E-01
	Si32	Si	-4.560000000000E-02	2.954000000000E-01	3.317000000000E-01
	Si33	Si	-9.910000000000E-02	-6.000000000000E-03	-3.137000000000E-01
	Si34	Si	-3.000000000000E-03	-1.982000000000E-01	3.137000000000E-01
	Si35	Si	9.910000000000E-02	6.000000000000E-03	3.137000000000E-01
	Si36	Si	3.000000000000E-03	1.982000000000E-01	-3.137000000000E-01
	O37	O	2.632500000000E-01	1.453000000000E-01	2.285000000000E-01
	O38	O	-3.542000000000E-01	-2.380000000000E-02	4.902000000000E-01
	O39	O	-4.950000000000E-01	3.166000000000E-01	-1.989000000000E-01
	O40	O	4.881000000000E-01	2.916000000000E-01	-4.902000000000E-01
	O41	O	-2.632500000000E-01	-1.453000000000E-01	-2.285000000000E-01
	O42	O	3.790500000000E-01	2.419000000000E-01	3.196000000000E-01
	O43	O	-2.500000000000E-01	7.206033746270E-17	0.000000000000E+00
	O44	O	-3.790500000000E-01	-2.419000000000E-01	-3.196000000000E-01
	O45	O	-4.273500000000E-01	-4.735000000000E-01	-2.285000000000E-01
	O46	O	4.316000000000E-01	1.368000000000E-01	-2.965000000000E-01
	O47	O	5.000000000000E-01	-5.000000000000E-01	0.000000000000E+00
	O48	O	-4.316000000000E-01	-1.368000000000E-01	2.965000000000E-01
	O49	O	-3.633000000000E-01	2.734000000000E-01	0.000000000000E+00
	Si50	Si	2.980500000000E-01	-1.071000000000E-01	-1.061000000000E-01
	O51	O	4.131000000000E-01	-4.720000000000E-02	2.686000000000E-01
	Si52	Si	4.464500000000E-01	-4.039000000000E-01	1.061000000000E-01
	O53	O	3.417000000000E-01	-1.000000000000E-02	-1.989000000000E-01
	Si54	Si	-2.980500000000E-01	1.071000000000E-01	1.061000000000E-01
	O55	O	4.764000000000E-01	-1.738000000000E-01	-2.686000000000E-01
	Si56	Si	-4.464500000000E-01	4.039000000000E-01	-1.061000000000E-01
	O57	O	4.273500000000E-01	4.735000000000E-01	2.285000000000E-01
	Si58	Si	3.523000000000E-01	9.120000000000E-02	3.317000000000E-01
	O59	O	-4.131000000000E-01	4.720000000000E-02	-2.686000000000E-01
	Si60	Si	-4.544000000000E-01	-2.954000000000E-01	-3.317000000000E-01
	O61	O	4.950000000000E-01	-3.166000000000E-01	1.989000000000E-01
	Si62	Si	-3.523000000000E-01	-9.120000000000E-02	-3.317000000000E-01
	O63	O	-4.764000000000E-01	1.738000000000E-01	2.686000000000E-01
	Si64	Si	4.544000000000E-01	2.954000000000E-01	3.317000000000E-01
	O65	O	3.633000000000E-01	-2.734000000000E-01	0.000000000000E+00
	Si66	Si	4.009000000000E-01	-6.000000000000E-03	-3.137000000000E-01
	O67	O	3.542000000000E-01	2.380000000000E-02	-4.902000000000E-01
	Si68	Si	4.970000000000E-01	-1.982000000000E-01	3.137000000000E-01
	O69	O	-3.417000000000E-01	1.000000000000E-02	1.989000000000E-01
	Si70	Si	-4.009000000000E-01	6.000000000000E-03	3.137000000000E-01
	O71	O	-4.881000000000E-01	-2.916000000000E-01	4.902000000000E-01
	Si72	Si	-4.970000000000E-01	1.982000000000E-01	-3.137000000000E-01
