data IWR
_chemical_name_common		'IWR'
_cell_length_a		12.52780401
_cell_length_b		12.52780401
_cell_length_c		12.67600000
_cell_angle_alpha		90.000000
_cell_angle_beta		90.000000
_cell_angle_gamma		115.867552
_space group_name_H-M_alt		'P 1'
_space_group_IT_number		1

loop_
	_atom_site_label
	_atom_site_type_symbol
	_atom_site_fract_x
	_atom_site_fract_y
	_atom_site_fract_z
	O1	O	2.713000000000E-01	7.330000000000E-02	1.037000000000E-01
	O2	O	-2.713000000000E-01	-7.330000000000E-02	1.037000000000E-01
	O3	O	-7.330000000000E-02	-2.713000000000E-01	-1.037000000000E-01
	O4	O	7.330000000000E-02	2.713000000000E-01	-1.037000000000E-01
	O5	O	-2.713000000000E-01	-7.330000000000E-02	-1.037000000000E-01
	O6	O	2.713000000000E-01	7.330000000000E-02	-1.037000000000E-01
	O7	O	7.330000000000E-02	2.713000000000E-01	1.037000000000E-01
	O8	O	-7.330000000000E-02	-2.713000000000E-01	1.037000000000E-01
	O9	O	1.100000000000E-01	1.100000000000E-01	0.000000000000E+00
	O10	O	-1.100000000000E-01	-1.100000000000E-01	0.000000000000E+00
	O11	O	1.022000000000E-01	-1.022000000000E-01	0.000000000000E+00
	O12	O	-1.022000000000E-01	1.022000000000E-01	0.000000000000E+00
	O13	O	2.181000000000E-01	3.550000000000E-02	-5.000000000000E-01
	O14	O	-2.181000000000E-01	-3.550000000000E-02	-5.000000000000E-01
	O15	O	-3.550000000000E-02	-2.181000000000E-01	-5.000000000000E-01
	O16	O	3.550000000000E-02	2.181000000000E-01	-5.000000000000E-01
	O17	O	7.950000000000E-02	-7.950000000000E-02	3.423000000000E-01
	O18	O	-7.950000000000E-02	7.950000000000E-02	3.423000000000E-01
	O19	O	7.950000000000E-02	-7.950000000000E-02	-3.423000000000E-01
	O20	O	-7.950000000000E-02	7.950000000000E-02	-3.423000000000E-01
	O21	O	3.028000000000E-01	6.660000000000E-02	3.075000000000E-01
	O22	O	-3.028000000000E-01	-6.660000000000E-02	3.075000000000E-01
	O23	O	-6.660000000000E-02	-3.028000000000E-01	-3.075000000000E-01
	O24	O	6.660000000000E-02	3.028000000000E-01	-3.075000000000E-01
	O25	O	-3.028000000000E-01	-6.660000000000E-02	-3.075000000000E-01
	O26	O	3.028000000000E-01	6.660000000000E-02	-3.075000000000E-01
	O27	O	6.660000000000E-02	3.028000000000E-01	3.075000000000E-01
	O28	O	-6.660000000000E-02	-3.028000000000E-01	3.075000000000E-01
	O29	O	1.503000000000E-01	1.503000000000E-01	3.618000000000E-01
	O30	O	-1.503000000000E-01	-1.503000000000E-01	3.618000000000E-01
	O31	O	-1.503000000000E-01	-1.503000000000E-01	-3.618000000000E-01
	O32	O	1.503000000000E-01	1.503000000000E-01	-3.618000000000E-01
	O33	O	3.363000000000E-01	-8.370000000000E-02	1.812000000000E-01
	O34	O	-3.363000000000E-01	8.370000000000E-02	1.812000000000E-01
	O35	O	8.370000000000E-02	-3.363000000000E-01	-1.812000000000E-01
	O36	O	-8.370000000000E-02	3.363000000000E-01	-1.812000000000E-01
	O37	O	-3.363000000000E-01	8.370000000000E-02	-1.812000000000E-01
	O38	O	3.363000000000E-01	-8.370000000000E-02	-1.812000000000E-01
	O39	O	-8.370000000000E-02	3.363000000000E-01	1.812000000000E-01
	O40	O	8.370000000000E-02	-3.363000000000E-01	1.812000000000E-01
	O41	O	4.865000000000E-01	1.421000000000E-01	1.788000000000E-01
	O42	O	-4.865000000000E-01	-1.421000000000E-01	1.788000000000E-01
	O43	O	-1.421000000000E-01	-4.865000000000E-01	-1.788000000000E-01
	O44	O	1.421000000000E-01	4.865000000000E-01	-1.788000000000E-01
	O45	O	-4.865000000000E-01	-1.421000000000E-01	-1.788000000000E-01
	O46	O	4.865000000000E-01	1.421000000000E-01	-1.788000000000E-01
	O47	O	1.421000000000E-01	4.865000000000E-01	1.788000000000E-01
	O48	O	-1.421000000000E-01	-4.865000000000E-01	1.788000000000E-01
	O49	O	2.994000000000E-01	-2.994000000000E-01	1.262000000000E-01
	O50	O	-2.994000000000E-01	2.994000000000E-01	1.262000000000E-01
	O51	O	2.994000000000E-01	-2.994000000000E-01	-1.262000000000E-01
	O52	O	-2.994000000000E-01	2.994000000000E-01	-1.262000000000E-01
	O53	O	4.180000000000E-01	-1.198000000000E-01	0.000000000000E+00
	O54	O	-4.180000000000E-01	1.198000000000E-01	0.000000000000E+00
	O55	O	1.198000000000E-01	-4.180000000000E-01	0.000000000000E+00
	O56	O	-1.198000000000E-01	4.180000000000E-01	0.000000000000E+00
	Si57	Si	1.876000000000E-01	4.360000000000E-02	3.777000000000E-01
	Si58	Si	-1.876000000000E-01	-4.360000000000E-02	3.777000000000E-01
	Si59	Si	-4.360000000000E-02	-1.876000000000E-01	-3.777000000000E-01
	Si60	Si	4.360000000000E-02	1.876000000000E-01	-3.777000000000E-01
	Si61	Si	-1.876000000000E-01	-4.360000000000E-02	-3.777000000000E-01
	Si62	Si	1.876000000000E-01	4.360000000000E-02	-3.777000000000E-01
	Si63	Si	4.360000000000E-02	1.876000000000E-01	3.777000000000E-01
	Si64	Si	-4.360000000000E-02	-1.876000000000E-01	3.777000000000E-01
	Si65	Si	3.494000000000E-01	4.940000000000E-02	1.933000000000E-01
	Si66	Si	-3.494000000000E-01	-4.940000000000E-02	1.933000000000E-01
	Si67	Si	-4.940000000000E-02	-3.494000000000E-01	-1.933000000000E-01
	Si68	Si	4.940000000000E-02	3.494000000000E-01	-1.933000000000E-01
	Si69	Si	-3.494000000000E-01	-4.940000000000E-02	-1.933000000000E-01
	Si70	Si	3.494000000000E-01	4.940000000000E-02	-1.933000000000E-01
	Si71	Si	4.940000000000E-02	3.494000000000E-01	1.933000000000E-01
	Si72	Si	-4.940000000000E-02	-3.494000000000E-01	1.933000000000E-01
	Si73	Si	3.918000000000E-01	-1.612000000000E-01	1.213000000000E-01
	Si74	Si	-3.918000000000E-01	1.612000000000E-01	1.213000000000E-01
	Si75	Si	1.612000000000E-01	-3.918000000000E-01	-1.213000000000E-01
	Si76	Si	-1.612000000000E-01	3.918000000000E-01	-1.213000000000E-01
	Si77	Si	-3.918000000000E-01	1.612000000000E-01	-1.213000000000E-01
	Si78	Si	3.918000000000E-01	-1.612000000000E-01	-1.213000000000E-01
	Si79	Si	-1.612000000000E-01	3.918000000000E-01	1.213000000000E-01
	Si80	Si	1.612000000000E-01	-3.918000000000E-01	1.213000000000E-01
	Si81	Si	1.891000000000E-01	3.790000000000E-02	0.000000000000E+00
	Si82	Si	-1.891000000000E-01	-3.790000000000E-02	0.000000000000E+00
	Si83	Si	-3.790000000000E-02	-1.891000000000E-01	0.000000000000E+00
	Si84	Si	3.790000000000E-02	1.891000000000E-01	0.000000000000E+00
