data JBW
_chemical_name_common		'JBW'
_cell_length_a		10.51200000
_cell_length_b		14.90000000
_cell_length_c		8.15900000
_cell_angle_alpha		90.000000
_cell_angle_beta		90.000000
_cell_angle_gamma		90.000000
_space group_name_H-M_alt		'P 1'
_space_group_IT_number		1

loop_
	_atom_site_label
	_atom_site_type_symbol
	_atom_site_fract_x
	_atom_site_fract_y
	_atom_site_fract_z
	O1	O	0.000000000000E+00	1.306000000000E-01	0.000000000000E+00
	O2	O	2.500000000000E-01	-1.306000000000E-01	0.000000000000E+00
	O3	O	0.000000000000E+00	-1.306000000000E-01	0.000000000000E+00
	O4	O	2.500000000000E-01	1.306000000000E-01	0.000000000000E+00
	O5	O	1.250000000000E-01	0.000000000000E+00	1.455000000000E-01
	O6	O	-1.250000000000E-01	0.000000000000E+00	-1.455000000000E-01
	O7	O	1.250000000000E-01	1.617500000000E-01	2.728000000000E-01
	O8	O	1.250000000000E-01	-1.617500000000E-01	2.728000000000E-01
	O9	O	-1.250000000000E-01	-1.617500000000E-01	-2.728000000000E-01
	O10	O	-1.250000000000E-01	1.617500000000E-01	-2.728000000000E-01
	O11	O	2.500000000000E-01	2.500000000000E-01	-5.000000000000E-01
	O12	O	1.110223024625E-16	2.500000000000E-01	-5.000000000000E-01
	Si13	Si	1.250000000000E-01	1.055500000000E-01	1.042000000000E-01
	Si14	Si	1.250000000000E-01	-1.055500000000E-01	1.042000000000E-01
	Si15	Si	-1.250000000000E-01	-1.055500000000E-01	-1.042000000000E-01
	Si16	Si	-1.250000000000E-01	1.055500000000E-01	-1.042000000000E-01
	Si17	Si	1.250000000000E-01	2.500000000000E-01	3.865000000000E-01
	Si18	Si	-1.250000000000E-01	2.500000000000E-01	-3.865000000000E-01
	O19	O	-3.750000000000E-01	0.000000000000E+00	1.455000000000E-01
	O20	O	-3.750000000000E-01	-5.000000000000E-01	1.455000000000E-01
	O21	O	2.500000000000E-01	3.694000000000E-01	0.000000000000E+00
	O22	O	-1.250000000000E-01	-5.000000000000E-01	-1.455000000000E-01
	O23	O	3.750000000000E-01	0.000000000000E+00	-1.455000000000E-01
	O24	O	3.750000000000E-01	-5.000000000000E-01	-1.455000000000E-01
	O25	O	-2.500000000000E-01	-1.306000000000E-01	0.000000000000E+00
	O26	O	1.250000000000E-01	-3.382500000000E-01	2.728000000000E-01
	O27	O	-3.750000000000E-01	1.617500000000E-01	2.728000000000E-01
	O28	O	-3.750000000000E-01	-3.382500000000E-01	2.728000000000E-01
	O29	O	-2.500000000000E-01	3.694000000000E-01	0.000000000000E+00
	O30	O	1.250000000000E-01	3.382500000000E-01	2.728000000000E-01
	O31	O	-3.750000000000E-01	-1.617500000000E-01	2.728000000000E-01
	O32	O	-3.750000000000E-01	3.382500000000E-01	2.728000000000E-01
	O33	O	-5.000000000000E-01	1.306000000000E-01	0.000000000000E+00
	O34	O	-1.250000000000E-01	3.382500000000E-01	-2.728000000000E-01
	O35	O	3.750000000000E-01	-1.617500000000E-01	-2.728000000000E-01
	O36	O	3.750000000000E-01	3.382500000000E-01	-2.728000000000E-01
	O37	O	0.000000000000E+00	3.694000000000E-01	0.000000000000E+00
	O38	O	-1.250000000000E-01	-3.382500000000E-01	-2.728000000000E-01
	O39	O	3.750000000000E-01	1.617500000000E-01	-2.728000000000E-01
	O40	O	3.750000000000E-01	-3.382500000000E-01	-2.728000000000E-01
	O41	O	-5.000000000000E-01	-1.306000000000E-01	0.000000000000E+00
	O42	O	2.500000000000E-01	-2.500000000000E-01	-5.000000000000E-01
	O43	O	-2.500000000000E-01	2.500000000000E-01	-5.000000000000E-01
	O44	O	-2.500000000000E-01	-2.500000000000E-01	-5.000000000000E-01
	O45	O	-5.000000000000E-01	3.694000000000E-01	0.000000000000E+00
	O46	O	1.110223024625E-16	-2.500000000000E-01	-5.000000000000E-01
	O47	O	-5.000000000000E-01	2.500000000000E-01	-5.000000000000E-01
	O48	O	-5.000000000000E-01	-2.500000000000E-01	-5.000000000000E-01
	O49	O	-5.000000000000E-01	-3.694000000000E-01	0.000000000000E+00
	Si50	Si	1.250000000000E-01	-3.944500000000E-01	1.042000000000E-01
	Si51	Si	-3.750000000000E-01	1.055500000000E-01	1.042000000000E-01
	Si52	Si	-3.750000000000E-01	-3.944500000000E-01	1.042000000000E-01
	O53	O	2.500000000000E-01	-3.694000000000E-01	0.000000000000E+00
	Si54	Si	1.250000000000E-01	3.944500000000E-01	1.042000000000E-01
	Si55	Si	-3.750000000000E-01	-1.055500000000E-01	1.042000000000E-01
	Si56	Si	-3.750000000000E-01	3.944500000000E-01	1.042000000000E-01
	O57	O	-2.500000000000E-01	1.306000000000E-01	0.000000000000E+00
	Si58	Si	-1.250000000000E-01	3.944500000000E-01	-1.042000000000E-01
	Si59	Si	3.750000000000E-01	-1.055500000000E-01	-1.042000000000E-01
	Si60	Si	3.750000000000E-01	3.944500000000E-01	-1.042000000000E-01
	O61	O	-2.500000000000E-01	-3.694000000000E-01	0.000000000000E+00
	Si62	Si	-1.250000000000E-01	-3.944500000000E-01	-1.042000000000E-01
	Si63	Si	3.750000000000E-01	1.055500000000E-01	-1.042000000000E-01
	Si64	Si	3.750000000000E-01	-3.944500000000E-01	-1.042000000000E-01
	O65	O	0.000000000000E+00	-3.694000000000E-01	0.000000000000E+00
	Si66	Si	1.250000000000E-01	-2.500000000000E-01	3.865000000000E-01
	Si67	Si	-3.750000000000E-01	2.500000000000E-01	3.865000000000E-01
	Si68	Si	-3.750000000000E-01	-2.500000000000E-01	3.865000000000E-01
	O69	O	1.250000000000E-01	-5.000000000000E-01	1.455000000000E-01
	Si70	Si	-1.250000000000E-01	-2.500000000000E-01	-3.865000000000E-01
	Si71	Si	3.750000000000E-01	2.500000000000E-01	-3.865000000000E-01
	Si72	Si	3.750000000000E-01	-2.500000000000E-01	-3.865000000000E-01
