data JNT
_chemical_name_common		'JNT'
_cell_length_a		8.20650000
_cell_length_b		14.13640000
_cell_length_c		15.40456000
_cell_angle_alpha		90.000000
_cell_angle_beta		119.270000
_cell_angle_gamma		90.000000
_space group_name_H-M_alt		'P 1'
_space_group_IT_number		1

loop_
	_atom_site_label
	_atom_site_type_symbol
	_atom_site_fract_x
	_atom_site_fract_y
	_atom_site_fract_z
	Si1	Si	-1.562300000000E-01	-3.244200000000E-01	2.403700000000E-01
	Si2	Si	1.562300000000E-01	1.755800000000E-01	2.596300000000E-01
	Si3	Si	1.562300000000E-01	3.244200000000E-01	-2.403700000000E-01
	Si4	Si	-1.562300000000E-01	-1.755800000000E-01	-2.596300000000E-01
	Si5	Si	2.126600000000E-01	-3.051100000000E-01	-3.889700000000E-01
	Si6	Si	-2.126600000000E-01	1.948900000000E-01	-1.110300000000E-01
	Si7	Si	-2.126600000000E-01	3.051100000000E-01	3.889700000000E-01
	Si8	Si	2.126600000000E-01	-1.948900000000E-01	1.110300000000E-01
	Si9	Si	-3.018200000000E-01	-5.245000000000E-02	3.106500000000E-01
	Si10	Si	3.018200000000E-01	4.475500000000E-01	1.893500000000E-01
	Si11	Si	3.018200000000E-01	5.245000000000E-02	-3.106500000000E-01
	Si12	Si	-3.018200000000E-01	-4.475500000000E-01	-1.893500000000E-01
	Si13	Si	-4.194500000000E-01	-3.717400000000E-01	4.207200000000E-01
	Si14	Si	4.194500000000E-01	1.282600000000E-01	7.928000000000E-02
	Si15	Si	4.194500000000E-01	3.717400000000E-01	-4.207200000000E-01
	Si16	Si	-4.194500000000E-01	-1.282600000000E-01	-7.928000000000E-02
	Si17	Si	-1.456300000000E-01	-2.263500000000E-01	4.192300000000E-01
	Si18	Si	1.456300000000E-01	2.736500000000E-01	8.077000000000E-02
	Si19	Si	1.456300000000E-01	2.263500000000E-01	-4.192300000000E-01
	Si20	Si	-1.456300000000E-01	-2.736500000000E-01	-8.077000000000E-02
	Si21	Si	-4.142700000000E-01	-1.715400000000E-01	1.177100000000E-01
	Si22	Si	4.142700000000E-01	3.284600000000E-01	3.822900000000E-01
	Si23	Si	4.142700000000E-01	1.715400000000E-01	-1.177100000000E-01
	Si24	Si	-4.142700000000E-01	-3.284600000000E-01	-3.822900000000E-01
	Si25	Si	2.189600000000E-01	-3.553400000000E-01	2.367000000000E-01
	Si26	Si	-2.189600000000E-01	1.446600000000E-01	2.633000000000E-01
	Si27	Si	-2.189600000000E-01	3.553400000000E-01	-2.367000000000E-01
	Si28	Si	2.189600000000E-01	-1.446600000000E-01	-2.633000000000E-01
	Si29	Si	-2.948600000000E-01	4.958100000000E-01	3.058900000000E-01
	Si30	Si	2.948600000000E-01	-4.190000000000E-03	1.941100000000E-01
	Si31	Si	2.948600000000E-01	-4.958100000000E-01	-3.058900000000E-01
	Si32	Si	-2.948600000000E-01	4.190000000000E-03	-1.941100000000E-01
	O33	O	1.670700000000E-01	-4.028000000000E-01	-3.511800000000E-01
	O34	O	-1.670700000000E-01	9.720000000000E-02	-1.488200000000E-01
	O35	O	-1.670700000000E-01	4.028000000000E-01	3.511800000000E-01
	O36	O	1.670700000000E-01	-9.720000000000E-02	1.488200000000E-01
	O37	O	3.630800000000E-01	-3.263200000000E-01	-4.250900000000E-01
	O38	O	-3.630800000000E-01	1.736800000000E-01	-7.491000000000E-02
	O39	O	-3.630800000000E-01	3.263200000000E-01	4.250900000000E-01
	O40	O	3.630800000000E-01	-1.736800000000E-01	7.491000000000E-02
	O41	O	2.380000000000E-02	-2.580000000000E-01	-4.746500000000E-01
	O42	O	-2.380000000000E-02	2.420000000000E-01	-2.535000000000E-02
	O43	O	-2.380000000000E-02	2.580000000000E-01	4.746500000000E-01
	O44	O	2.380000000000E-02	-2.420000000000E-01	2.535000000000E-02
	O45	O	3.562100000000E-01	-3.727800000000E-01	3.537000000000E-01
	O46	O	-3.562100000000E-01	1.272200000000E-01	1.463000000000E-01
	O47	O	-3.562100000000E-01	3.727800000000E-01	-3.537000000000E-01
	O48	O	3.562100000000E-01	-1.272200000000E-01	-1.463000000000E-01
	O49	O	3.022900000000E-01	-2.306600000000E-01	-2.982200000000E-01
	O50	O	-3.022900000000E-01	2.693400000000E-01	-2.017800000000E-01
	O51	O	-3.022900000000E-01	2.306600000000E-01	2.982200000000E-01
	O52	O	3.022900000000E-01	-2.693400000000E-01	2.017800000000E-01
	O53	O	-3.357000000000E-01	-2.780000000000E-01	1.470900000000E-01
	O54	O	3.357000000000E-01	2.220000000000E-01	3.529100000000E-01
	O55	O	3.357000000000E-01	2.780000000000E-01	-1.470900000000E-01
	O56	O	-3.357000000000E-01	-2.220000000000E-01	-3.529100000000E-01
	O57	O	-1.968600000000E-01	-4.280000000000E-01	2.686200000000E-01
	O58	O	1.968600000000E-01	7.200000000000E-02	2.313800000000E-01
	O59	O	1.968600000000E-01	4.280000000000E-01	-2.686200000000E-01
	O60	O	-1.968600000000E-01	-7.200000000000E-02	-2.313800000000E-01
	O61	O	-1.824100000000E-01	-1.138900000000E-01	4.101800000000E-01
	O62	O	1.824100000000E-01	3.861100000000E-01	8.982000000000E-02
	O63	O	1.824100000000E-01	1.138900000000E-01	-4.101800000000E-01
	O64	O	-1.824100000000E-01	-3.861100000000E-01	-8.982000000000E-02
	O65	O	-3.352500000000E-01	-4.605000000000E-01	3.901200000000E-01
	O66	O	3.352500000000E-01	3.950000000000E-02	1.098800000000E-01
	O67	O	3.352500000000E-01	4.605000000000E-01	-3.901200000000E-01
	O68	O	-3.352500000000E-01	-3.950000000000E-02	-1.098800000000E-01
	O69	O	-3.661400000000E-01	-3.716900000000E-01	-4.638900000000E-01
	O70	O	3.661400000000E-01	1.283100000000E-01	-3.611000000000E-02
	O71	O	3.661400000000E-01	3.716900000000E-01	4.638900000000E-01
	O72	O	-3.661400000000E-01	-1.283100000000E-01	3.611000000000E-02
	O73	O	-3.370800000000E-01	-2.771400000000E-01	3.982600000000E-01
	O74	O	3.370800000000E-01	2.228600000000E-01	1.017400000000E-01
	O75	O	3.370800000000E-01	2.771400000000E-01	-3.982600000000E-01
	O76	O	-3.370800000000E-01	-2.228600000000E-01	-1.017400000000E-01
	O77	O	-3.128100000000E-01	-1.067900000000E-01	2.161000000000E-01
	O78	O	3.128100000000E-01	3.932100000000E-01	2.839000000000E-01
	O79	O	3.128100000000E-01	1.067900000000E-01	-2.161000000000E-01
	O80	O	-3.128100000000E-01	-3.932100000000E-01	-2.839000000000E-01
	O81	O	1.176000000000E-02	-3.288300000000E-01	2.148700000000E-01
	O82	O	-1.176000000000E-02	1.711700000000E-01	2.851300000000E-01
	O83	O	-1.176000000000E-02	3.288300000000E-01	-2.148700000000E-01
	O84	O	1.176000000000E-02	-1.711700000000E-01	-2.851300000000E-01
	O85	O	-2.060800000000E-01	4.981000000000E-02	3.241400000000E-01
	O86	O	2.060800000000E-01	-4.501900000000E-01	1.758600000000E-01
	O87	O	2.060800000000E-01	-4.981000000000E-02	-3.241400000000E-01
	O88	O	-2.060800000000E-01	4.501900000000E-01	-1.758600000000E-01
	O89	O	4.875100000000E-01	-3.671000000000E-02	2.895200000000E-01
	O90	O	-4.875100000000E-01	4.632900000000E-01	2.104800000000E-01
	O91	O	-4.875100000000E-01	3.671000000000E-02	-2.895200000000E-01
	O92	O	4.875100000000E-01	-4.632900000000E-01	-2.104800000000E-01
	O93	O	-9.274000000000E-02	-2.560700000000E-01	3.351400000000E-01
	O94	O	9.274000000000E-02	2.439300000000E-01	1.648600000000E-01
	O95	O	9.274000000000E-02	2.560700000000E-01	-3.351400000000E-01
	O96	O	-9.274000000000E-02	-2.439300000000E-01	-1.648600000000E-01
