data JOZ
_chemical_name_common		'JOZ'
_cell_length_a		7.13860000
_cell_length_b		25.41820000
_cell_length_c		13.47050000
_cell_angle_alpha		90.000000
_cell_angle_beta		90.000000
_cell_angle_gamma		90.000000
_space group_name_H-M_alt		'P 1'
_space_group_IT_number		1

loop_
	_atom_site_label
	_atom_site_type_symbol
	_atom_site_fract_x
	_atom_site_fract_y
	_atom_site_fract_z
	O1	O	-1.640000000000E-01	-2.430000000000E-01	-4.202000000000E-01
	O2	O	1.640000000000E-01	2.430000000000E-01	7.980000000000E-02
	O3	O	-1.640000000000E-01	-7.000000000000E-03	4.202000000000E-01
	O4	O	1.640000000000E-01	7.000000000000E-03	-7.980000000000E-02
	O5	O	1.640000000000E-01	2.430000000000E-01	4.202000000000E-01
	O6	O	-1.640000000000E-01	-2.430000000000E-01	-7.980000000000E-02
	O7	O	1.640000000000E-01	7.000000000000E-03	-4.202000000000E-01
	O8	O	-1.640000000000E-01	-7.000000000000E-03	7.980000000000E-02
	O9	O	1.978000000000E-01	-2.334500000000E-01	-3.911000000000E-01
	O10	O	-1.978000000000E-01	2.334500000000E-01	1.089000000000E-01
	O11	O	1.978000000000E-01	-1.655000000000E-02	3.911000000000E-01
	O12	O	-1.978000000000E-01	1.655000000000E-02	-1.089000000000E-01
	O13	O	-1.978000000000E-01	2.334500000000E-01	3.911000000000E-01
	O14	O	1.978000000000E-01	-2.334500000000E-01	-1.089000000000E-01
	O15	O	-1.978000000000E-01	1.655000000000E-02	-3.911000000000E-01
	O16	O	1.978000000000E-01	-1.655000000000E-02	1.089000000000E-01
	O17	O	-1.490000000000E-02	-1.496000000000E-01	-4.139000000000E-01
	O18	O	1.490000000000E-02	1.496000000000E-01	8.610000000000E-02
	O19	O	-1.490000000000E-02	-1.004000000000E-01	4.139000000000E-01
	O20	O	1.490000000000E-02	1.004000000000E-01	-8.610000000000E-02
	O21	O	1.490000000000E-02	1.496000000000E-01	4.139000000000E-01
	O22	O	-1.490000000000E-02	-1.496000000000E-01	-8.610000000000E-02
	O23	O	1.490000000000E-02	1.004000000000E-01	-4.139000000000E-01
	O24	O	-1.490000000000E-02	-1.004000000000E-01	8.610000000000E-02
	O25	O	-4.140000000000E-02	-2.057000000000E-01	-2.500000000000E-01
	O26	O	4.140000000000E-02	2.057000000000E-01	2.500000000000E-01
	O27	O	-4.140000000000E-02	-4.430000000000E-02	2.500000000000E-01
	O28	O	4.140000000000E-02	4.430000000000E-02	-2.500000000000E-01
	O29	O	2.746000000000E-01	7.885000000000E-02	4.470000000000E-02
	O30	O	-2.746000000000E-01	-7.885000000000E-02	-4.553000000000E-01
	O31	O	2.746000000000E-01	1.711500000000E-01	-4.470000000000E-02
	O32	O	-2.746000000000E-01	-1.711500000000E-01	4.553000000000E-01
	O33	O	-2.746000000000E-01	-7.885000000000E-02	-4.470000000000E-02
	O34	O	2.746000000000E-01	7.885000000000E-02	4.553000000000E-01
	O35	O	-2.746000000000E-01	-1.711500000000E-01	4.470000000000E-02
	O36	O	2.746000000000E-01	1.711500000000E-01	-4.553000000000E-01
	O37	O	-5.000000000000E-01	0.000000000000E+00	0.000000000000E+00
	O38	O	-5.000000000000E-01	0.000000000000E+00	-5.000000000000E-01
	O39	O	-5.000000000000E-01	2.500000000000E-01	0.000000000000E+00
	O40	O	-5.000000000000E-01	2.500000000000E-01	-5.000000000000E-01
	Si41	Si	-3.900000000000E-03	-2.080000000000E-01	-3.675000000000E-01
	Si42	Si	3.900000000000E-03	2.080000000000E-01	1.325000000000E-01
	Si43	Si	-3.900000000000E-03	-4.200000000000E-02	3.675000000000E-01
	Si44	Si	3.900000000000E-03	4.200000000000E-02	-1.325000000000E-01
	Si45	Si	3.900000000000E-03	2.080000000000E-01	3.675000000000E-01
	Si46	Si	-3.900000000000E-03	-2.080000000000E-01	-1.325000000000E-01
	Si47	Si	3.900000000000E-03	4.200000000000E-02	-3.675000000000E-01
	Si48	Si	-3.900000000000E-03	-4.200000000000E-02	1.325000000000E-01
	Si49	Si	2.864000000000E-01	1.700000000000E-02	1.900000000000E-02
	Si50	Si	-2.864000000000E-01	-1.700000000000E-02	-4.810000000000E-01
	Si51	Si	2.864000000000E-01	2.330000000000E-01	-1.900000000000E-02
	Si52	Si	-2.864000000000E-01	-2.330000000000E-01	4.810000000000E-01
	Si53	Si	-2.864000000000E-01	-1.700000000000E-02	-1.900000000000E-02
	Si54	Si	2.864000000000E-01	1.700000000000E-02	4.810000000000E-01
	Si55	Si	-2.864000000000E-01	-2.330000000000E-01	1.900000000000E-02
	Si56	Si	2.864000000000E-01	2.330000000000E-01	-4.810000000000E-01
	Si57	Si	1.448000000000E-01	1.250000000000E-01	0.000000000000E+00
	Si58	Si	-1.448000000000E-01	-1.250000000000E-01	-5.000000000000E-01
	Si59	Si	-1.448000000000E-01	-1.250000000000E-01	0.000000000000E+00
	Si60	Si	1.448000000000E-01	1.250000000000E-01	-5.000000000000E-01
	O61	O	-1.640000000000E-01	4.930000000000E-01	7.980000000000E-02
	O62	O	2.746000000000E-01	-3.288500000000E-01	-4.470000000000E-02
	O63	O	1.978000000000E-01	4.834500000000E-01	1.089000000000E-01
	O64	O	-2.746000000000E-01	3.288500000000E-01	4.553000000000E-01
	O65	O	-1.640000000000E-01	2.570000000000E-01	-4.202000000000E-01
	O66	O	-2.746000000000E-01	4.211500000000E-01	-4.470000000000E-02
	O67	O	-1.490000000000E-02	3.504000000000E-01	-4.139000000000E-01
	O68	O	2.746000000000E-01	-4.211500000000E-01	4.553000000000E-01
	O69	O	1.978000000000E-01	2.665500000000E-01	-3.911000000000E-01
	O70	O	-2.746000000000E-01	3.288500000000E-01	4.470000000000E-02
	O71	O	1.490000000000E-02	-3.504000000000E-01	8.610000000000E-02
	O72	O	2.746000000000E-01	-3.288500000000E-01	-4.553000000000E-01
	O73	O	1.640000000000E-01	-2.570000000000E-01	4.202000000000E-01
	O74	O	-5.000000000000E-01	-5.000000000000E-01	0.000000000000E+00
	O75	O	-1.490000000000E-02	3.996000000000E-01	4.139000000000E-01
	O76	O	-5.000000000000E-01	-5.000000000000E-01	-5.000000000000E-01
	O77	O	-1.978000000000E-01	-2.665500000000E-01	1.089000000000E-01
	O78	O	-5.000000000000E-01	-2.500000000000E-01	0.000000000000E+00
	O79	O	1.490000000000E-02	-3.996000000000E-01	-8.610000000000E-02
	O80	O	-5.000000000000E-01	-2.500000000000E-01	-5.000000000000E-01
	O81	O	-1.640000000000E-01	4.930000000000E-01	4.202000000000E-01
	Si82	Si	-3.900000000000E-03	2.920000000000E-01	-3.675000000000E-01
	O83	O	1.490000000000E-02	-3.504000000000E-01	4.139000000000E-01
	Si84	Si	3.900000000000E-03	-2.920000000000E-01	1.325000000000E-01
	O85	O	1.978000000000E-01	4.834500000000E-01	3.911000000000E-01
	Si86	Si	-3.900000000000E-03	4.580000000000E-01	3.675000000000E-01
	O87	O	-1.490000000000E-02	3.504000000000E-01	-8.610000000000E-02
	Si88	Si	3.900000000000E-03	-4.580000000000E-01	-1.325000000000E-01
	O89	O	-1.640000000000E-01	2.570000000000E-01	-7.980000000000E-02
	Si90	Si	3.900000000000E-03	-2.920000000000E-01	3.675000000000E-01
	O91	O	1.490000000000E-02	-3.996000000000E-01	-4.139000000000E-01
	Si92	Si	-3.900000000000E-03	2.920000000000E-01	-1.325000000000E-01
	O93	O	-1.978000000000E-01	-4.834500000000E-01	-1.089000000000E-01
	Si94	Si	3.900000000000E-03	-4.580000000000E-01	-3.675000000000E-01
	O95	O	-1.490000000000E-02	3.996000000000E-01	8.610000000000E-02
	Si96	Si	-3.900000000000E-03	4.580000000000E-01	1.325000000000E-01
	O97	O	1.640000000000E-01	-2.570000000000E-01	7.980000000000E-02
	Si98	Si	2.864000000000E-01	-4.830000000000E-01	1.900000000000E-02
	O99	O	-4.140000000000E-02	2.943000000000E-01	-2.500000000000E-01
	Si100	Si	-2.864000000000E-01	4.830000000000E-01	-4.810000000000E-01
	O101	O	-1.978000000000E-01	-2.665500000000E-01	3.911000000000E-01
	Si102	Si	2.864000000000E-01	-2.670000000000E-01	-1.900000000000E-02
	O103	O	4.140000000000E-02	-2.943000000000E-01	2.500000000000E-01
	Si104	Si	-2.864000000000E-01	2.670000000000E-01	4.810000000000E-01
	O105	O	1.640000000000E-01	-4.930000000000E-01	-4.202000000000E-01
	Si106	Si	-2.864000000000E-01	4.830000000000E-01	-1.900000000000E-02
	O107	O	-4.140000000000E-02	4.557000000000E-01	2.500000000000E-01
	Si108	Si	2.864000000000E-01	-4.830000000000E-01	4.810000000000E-01
	O109	O	1.978000000000E-01	2.665500000000E-01	-1.089000000000E-01
	Si110	Si	-2.864000000000E-01	2.670000000000E-01	1.900000000000E-02
	O111	O	4.140000000000E-02	-4.557000000000E-01	-2.500000000000E-01
	Si112	Si	2.864000000000E-01	-2.670000000000E-01	-4.810000000000E-01
	O113	O	1.640000000000E-01	-4.930000000000E-01	-7.980000000000E-02
	Si114	Si	1.448000000000E-01	-3.750000000000E-01	0.000000000000E+00
	O115	O	2.746000000000E-01	-4.211500000000E-01	4.470000000000E-02
	Si116	Si	-1.448000000000E-01	3.750000000000E-01	-5.000000000000E-01
	O117	O	-1.978000000000E-01	-4.834500000000E-01	-3.911000000000E-01
	Si118	Si	-1.448000000000E-01	3.750000000000E-01	0.000000000000E+00
	O119	O	-2.746000000000E-01	4.211500000000E-01	-4.553000000000E-01
	Si120	Si	1.448000000000E-01	-3.750000000000E-01	-5.000000000000E-01
