data JRY
_chemical_name_common		'JRY'
_cell_length_a		10.61119292
_cell_length_b		10.61119292
_cell_length_c		21.22238585
_cell_angle_alpha		134.745389
_cell_angle_beta		128.619657
_cell_angle_gamma		70.846188
_space group_name_H-M_alt		'P 1'
_space_group_IT_number		1

loop_
	_atom_site_label
	_atom_site_type_symbol
	_atom_site_fract_x
	_atom_site_fract_y
	_atom_site_fract_z
	O1	O	1.914000000000E-01	-3.577583730379E-18	9.570000000000E-02
	O2	O	3.086000000000E-01	-5.000000000000E-01	4.043000000000E-01
	O3	O	2.270000000000E-02	-1.639000000000E-01	-1.099000000000E-01
	O4	O	-4.441000000000E-01	-2.575000000000E-01	1.099000000000E-01
	O5	O	4.773000000000E-01	2.575000000000E-01	-9.330000000000E-02
	O6	O	-5.590000000000E-02	1.639000000000E-01	9.330000000000E-02
	O7	O	2.342000000000E-01	1.398000000000E-01	4.510000000000E-02
	O8	O	-4.504000000000E-01	-3.560000000000E-01	4.549000000000E-01
	O9	O	2.658000000000E-01	3.560000000000E-01	4.528000000000E-01
	O10	O	-4.960000000000E-02	-1.398000000000E-01	4.720000000000E-02
	O11	O	3.416000000000E-01	-1.584000000000E-01	-2.355525356819E-17
	O12	O	1.584000000000E-01	1.584000000000E-01	2.500000000000E-01
	O13	O	1.149000000000E-01	4.028000000000E-01	1.538500000000E-01
	O14	O	-4.049000000000E-01	3.072000000000E-01	3.461500000000E-01
	O15	O	3.851000000000E-01	-3.072000000000E-01	1.439500000000E-01
	O16	O	-9.510000000000E-02	-4.028000000000E-01	3.560500000000E-01
	O17	O	-9.450000000000E-02	-5.000000000000E-01	2.027500000000E-01
	O18	O	-4.055000000000E-01	1.257945677875E-16	-2.027500000000E-01
	O19	O	-2.030000000000E-01	2.970000000000E-01	3.914993021220E-17
	O20	O	-2.970000000000E-01	-2.970000000000E-01	2.500000000000E-01
	O21	O	6.600000000000E-02	-4.340000000000E-01	-5.823778045200E-18
	O22	O	4.340000000000E-01	4.340000000000E-01	2.500000000000E-01
	O23	O	2.500000000000E-01	4.498000000000E-01	9.990000000000E-02
	O24	O	-2.500000000000E-01	-4.498000000000E-01	-9.990000000000E-02
	Si25	Si	1.986000000000E-01	-4.690000000000E-02	7.550000000000E-03
	Si26	Si	4.380000000000E-01	-3.165000000000E-01	4.924500000000E-01
	Si27	Si	3.014000000000E-01	3.165000000000E-01	3.772500000000E-01
	Si28	Si	6.200000000000E-02	4.690000000000E-02	1.227500000000E-01
	Si29	Si	-6.000000000000E-02	3.407000000000E-01	1.122500000000E-01
	Si30	Si	-3.838000000000E-01	2.155000000000E-01	-1.122500000000E-01
	Si31	Si	-4.400000000000E-01	-2.155000000000E-01	-2.996500000000E-01
	Si32	Si	-1.162000000000E-01	-3.407000000000E-01	2.996500000000E-01
	Si33	Si	2.433000000000E-01	-4.837000000000E-01	4.950000000000E-02
	Si34	Si	-8.270000000000E-02	-3.557000000000E-01	-4.950000000000E-02
	Si35	Si	2.567000000000E-01	3.557000000000E-01	1.365000000000E-01
	Si36	Si	-4.173000000000E-01	4.837000000000E-01	3.635000000000E-01
	O37	O	4.773000000000E-01	2.575000000000E-01	4.067000000000E-01
	O38	O	-2.030000000000E-01	2.970000000000E-01	-5.000000000000E-01
	O39	O	-4.960000000000E-02	-1.398000000000E-01	-4.528000000000E-01
	O40	O	-2.970000000000E-01	-2.970000000000E-01	-2.500000000000E-01
	O41	O	2.270000000000E-02	-1.639000000000E-01	3.901000000000E-01
	O42	O	6.600000000000E-02	-4.340000000000E-01	-5.000000000000E-01
	O43	O	3.416000000000E-01	-1.584000000000E-01	-5.000000000000E-01
	O44	O	4.340000000000E-01	4.340000000000E-01	-2.500000000000E-01
	O45	O	-5.590000000000E-02	1.639000000000E-01	-4.067000000000E-01
	O46	O	2.500000000000E-01	4.498000000000E-01	-4.001000000000E-01
	O47	O	1.584000000000E-01	1.584000000000E-01	-2.500000000000E-01
	O48	O	-2.500000000000E-01	-4.498000000000E-01	4.001000000000E-01
	O49	O	3.086000000000E-01	-5.000000000000E-01	-9.570000000000E-02
	Si50	Si	1.986000000000E-01	-4.690000000000E-02	-4.924500000000E-01
	O51	O	1.149000000000E-01	4.028000000000E-01	-3.461500000000E-01
	Si52	Si	4.380000000000E-01	-3.165000000000E-01	-7.550000000000E-03
	O53	O	2.342000000000E-01	1.398000000000E-01	-4.549000000000E-01
	Si54	Si	3.014000000000E-01	3.165000000000E-01	-1.227500000000E-01
	O55	O	-4.049000000000E-01	3.072000000000E-01	-1.538500000000E-01
	Si56	Si	6.200000000000E-02	4.690000000000E-02	-3.772500000000E-01
	O57	O	-4.441000000000E-01	-2.575000000000E-01	-3.901000000000E-01
	Si58	Si	-6.000000000000E-02	3.407000000000E-01	-3.877500000000E-01
	O59	O	3.851000000000E-01	-3.072000000000E-01	-3.560500000000E-01
	Si60	Si	-3.838000000000E-01	2.155000000000E-01	3.877500000000E-01
	O61	O	-4.504000000000E-01	-3.560000000000E-01	-4.510000000000E-02
	Si62	Si	-4.400000000000E-01	-2.155000000000E-01	2.003500000000E-01
	O63	O	-9.510000000000E-02	-4.028000000000E-01	-1.439500000000E-01
	Si64	Si	-1.162000000000E-01	-3.407000000000E-01	-2.003500000000E-01
	O65	O	1.914000000000E-01	4.255414807813E-18	-4.043000000000E-01
	Si66	Si	2.433000000000E-01	-4.837000000000E-01	-4.505000000000E-01
	O67	O	-9.450000000000E-02	-5.000000000000E-01	-2.972500000000E-01
	Si68	Si	-8.270000000000E-02	-3.557000000000E-01	4.505000000000E-01
	O69	O	2.658000000000E-01	3.560000000000E-01	-4.720000000000E-02
	Si70	Si	2.567000000000E-01	3.557000000000E-01	-3.635000000000E-01
	O71	O	-4.055000000000E-01	3.218718732291E-16	2.972500000000E-01
	Si72	Si	-4.173000000000E-01	4.837000000000E-01	-1.365000000000E-01
