data JSN
_chemical_name_common		'JSN'
_cell_length_a		8.71720000
_cell_length_b		6.92310000
_cell_length_c		29.89200000
_cell_angle_alpha		90.000000
_cell_angle_beta		96.992000
_cell_angle_gamma		90.000000
_space group_name_H-M_alt		'P 1'
_space_group_IT_number		1

loop_
	_atom_site_label
	_atom_site_type_symbol
	_atom_site_fract_x
	_atom_site_fract_y
	_atom_site_fract_z
	O1	O	-2.760000000000E-01	2.994000000000E-01	9.900000000000E-02
	O2	O	2.760000000000E-01	2.994000000000E-01	1.510000000000E-01
	O3	O	2.760000000000E-01	-2.994000000000E-01	-9.900000000000E-02
	O4	O	-2.760000000000E-01	-2.994000000000E-01	-1.510000000000E-01
	O5	O	-2.245000000000E-01	1.056000000000E-01	1.747000000000E-01
	O6	O	2.245000000000E-01	1.056000000000E-01	7.530000000000E-02
	O7	O	2.245000000000E-01	-1.056000000000E-01	-1.747000000000E-01
	O8	O	-2.245000000000E-01	-1.056000000000E-01	-7.530000000000E-02
	O9	O	-2.283000000000E-01	-7.430000000000E-02	9.645000000000E-02
	O10	O	2.283000000000E-01	-7.430000000000E-02	1.535500000000E-01
	O11	O	2.283000000000E-01	7.430000000000E-02	-9.645000000000E-02
	O12	O	-2.283000000000E-01	7.430000000000E-02	-1.535500000000E-01
	O13	O	7.959707255956E-18	1.621000000000E-01	1.250000000000E-01
	O14	O	-7.959707255956E-18	-1.621000000000E-01	-1.250000000000E-01
	O15	O	-2.962000000000E-01	-8.220000000000E-02	7.900000000000E-03
	O16	O	2.962000000000E-01	-8.220000000000E-02	2.421000000000E-01
	O17	O	2.962000000000E-01	8.220000000000E-02	-7.900000000000E-03
	O18	O	-2.962000000000E-01	8.220000000000E-02	-2.421000000000E-01
	O19	O	-4.826000000000E-01	6.070000000000E-02	-5.985000000000E-02
	O20	O	4.826000000000E-01	6.070000000000E-02	-1.901500000000E-01
	O21	O	4.826000000000E-01	-6.070000000000E-02	5.985000000000E-02
	O22	O	-4.826000000000E-01	-6.070000000000E-02	1.901500000000E-01
	O23	O	-4.525000000000E-01	-3.148000000000E-01	-4.990000000000E-02
	O24	O	4.525000000000E-01	-3.148000000000E-01	-2.001000000000E-01
	O25	O	4.525000000000E-01	3.148000000000E-01	4.990000000000E-02
	O26	O	-4.525000000000E-01	3.148000000000E-01	2.001000000000E-01
	O27	O	-3.611000000000E-01	3.819000000000E-01	-1.941500000000E-01
	O28	O	3.611000000000E-01	3.819000000000E-01	-5.585000000000E-02
	O29	O	3.611000000000E-01	-3.819000000000E-01	1.941500000000E-01
	O30	O	-3.611000000000E-01	-3.819000000000E-01	5.585000000000E-02
	O31	O	-5.000000000000E-01	-4.886000000000E-01	1.250000000000E-01
	O32	O	5.000000000000E-01	4.886000000000E-01	-1.250000000000E-01
	Si33	Si	-1.820000000000E-01	1.216000000000E-01	1.239000000000E-01
	Si34	Si	1.820000000000E-01	1.216000000000E-01	1.261000000000E-01
	Si35	Si	1.820000000000E-01	-1.216000000000E-01	-1.239000000000E-01
	Si36	Si	-1.820000000000E-01	-1.216000000000E-01	-1.261000000000E-01
	Si37	Si	-3.632000000000E-01	-1.109000000000E-01	-4.435000000000E-02
	Si38	Si	3.632000000000E-01	-1.109000000000E-01	-2.056500000000E-01
	Si39	Si	3.632000000000E-01	1.109000000000E-01	4.435000000000E-02
	Si40	Si	-3.632000000000E-01	1.109000000000E-01	2.056500000000E-01
	Si41	Si	-3.494000000000E-01	1.498000000000E-01	-1.948000000000E-01
	Si42	Si	3.494000000000E-01	1.498000000000E-01	-5.520000000000E-02
	Si43	Si	3.494000000000E-01	-1.498000000000E-01	1.948000000000E-01
	Si44	Si	-3.494000000000E-01	-1.498000000000E-01	5.520000000000E-02
	Si45	Si	4.211000000000E-01	4.357000000000E-01	1.677500000000E-01
	Si46	Si	-4.211000000000E-01	4.357000000000E-01	8.225000000000E-02
	Si47	Si	-4.211000000000E-01	-4.357000000000E-01	-1.677500000000E-01
	Si48	Si	4.211000000000E-01	-4.357000000000E-01	-8.225000000000E-02
	O49	O	2.760000000000E-01	2.994000000000E-01	-3.490000000000E-01
	O50	O	4.525000000000E-01	3.148000000000E-01	-4.501000000000E-01
	O51	O	3.550072471247E-18	1.621000000000E-01	-3.750000000000E-01
	O52	O	-4.525000000000E-01	3.148000000000E-01	-2.999000000000E-01
	O53	O	2.245000000000E-01	-1.056000000000E-01	3.253000000000E-01
	O54	O	-3.611000000000E-01	3.819000000000E-01	3.058500000000E-01
	O55	O	-3.130564808688E-17	-1.621000000000E-01	3.750000000000E-01
	O56	O	3.611000000000E-01	3.819000000000E-01	4.441500000000E-01
	O57	O	-2.760000000000E-01	-2.994000000000E-01	3.490000000000E-01
	O58	O	3.611000000000E-01	-3.819000000000E-01	-3.058500000000E-01
	O59	O	-2.962000000000E-01	-8.220000000000E-02	-4.921000000000E-01
	O60	O	-3.611000000000E-01	-3.819000000000E-01	-4.441500000000E-01
	O61	O	-2.245000000000E-01	-1.056000000000E-01	4.247000000000E-01
	O62	O	5.000000000000E-01	-4.886000000000E-01	-3.750000000000E-01
	O63	O	2.962000000000E-01	-8.220000000000E-02	-2.579000000000E-01
	O64	O	5.000000000000E-01	4.886000000000E-01	3.750000000000E-01
	O65	O	-2.760000000000E-01	2.994000000000E-01	-4.010000000000E-01
	Si66	Si	-1.820000000000E-01	1.216000000000E-01	-3.761000000000E-01
	O67	O	2.962000000000E-01	8.220000000000E-02	4.921000000000E-01
	Si68	Si	1.820000000000E-01	1.216000000000E-01	-3.739000000000E-01
	O69	O	-2.283000000000E-01	-7.430000000000E-02	-4.035500000000E-01
	Si70	Si	1.820000000000E-01	-1.216000000000E-01	3.761000000000E-01
	O71	O	-2.962000000000E-01	8.220000000000E-02	2.579000000000E-01
	Si72	Si	-1.820000000000E-01	-1.216000000000E-01	3.739000000000E-01
	O73	O	-2.245000000000E-01	1.056000000000E-01	-3.253000000000E-01
	Si74	Si	-3.632000000000E-01	-1.109000000000E-01	4.556500000000E-01
	O75	O	-4.826000000000E-01	6.070000000000E-02	4.401500000000E-01
	Si76	Si	3.632000000000E-01	-1.109000000000E-01	2.943500000000E-01
	O77	O	2.283000000000E-01	-7.430000000000E-02	-3.464500000000E-01
	Si78	Si	3.632000000000E-01	1.109000000000E-01	-4.556500000000E-01
	O79	O	4.826000000000E-01	6.070000000000E-02	3.098500000000E-01
	Si80	Si	-3.632000000000E-01	1.109000000000E-01	-2.943500000000E-01
	O81	O	2.760000000000E-01	-2.994000000000E-01	4.010000000000E-01
	Si82	Si	-3.494000000000E-01	1.498000000000E-01	3.052000000000E-01
	O83	O	4.826000000000E-01	-6.070000000000E-02	-4.401500000000E-01
	Si84	Si	3.494000000000E-01	1.498000000000E-01	4.448000000000E-01
	O85	O	2.283000000000E-01	7.430000000000E-02	4.035500000000E-01
	Si86	Si	3.494000000000E-01	-1.498000000000E-01	-3.052000000000E-01
	O87	O	-4.826000000000E-01	-6.070000000000E-02	-3.098500000000E-01
	Si88	Si	-3.494000000000E-01	-1.498000000000E-01	-4.448000000000E-01
	O89	O	2.245000000000E-01	1.056000000000E-01	-4.247000000000E-01
	Si90	Si	4.211000000000E-01	4.357000000000E-01	-3.322500000000E-01
	O91	O	-4.525000000000E-01	-3.148000000000E-01	4.501000000000E-01
	Si92	Si	-4.211000000000E-01	4.357000000000E-01	-4.177500000000E-01
	O93	O	-2.283000000000E-01	7.430000000000E-02	3.464500000000E-01
	Si94	Si	-4.211000000000E-01	-4.357000000000E-01	3.322500000000E-01
	O95	O	4.525000000000E-01	-3.148000000000E-01	2.999000000000E-01
	Si96	Si	4.211000000000E-01	-4.357000000000E-01	4.177500000000E-01
