data JST
_chemical_name_common		'JST'
_cell_length_a		14.97000000
_cell_length_b		14.97000000
_cell_length_c		14.97000000
_cell_angle_alpha		90.000000
_cell_angle_beta		90.000000
_cell_angle_gamma		90.000000
_space group_name_H-M_alt		'P 1'
_space_group_IT_number		1

loop_
	_atom_site_label
	_atom_site_type_symbol
	_atom_site_fract_x
	_atom_site_fract_y
	_atom_site_fract_z
	O1	O	-1.286000000000E-01	8.490000000000E-02	-3.310000000000E-02
	O2	O	-3.714000000000E-01	-8.490000000000E-02	4.669000000000E-01
	O3	O	3.714000000000E-01	4.151000000000E-01	3.310000000000E-02
	O4	O	1.286000000000E-01	-4.151000000000E-01	-4.669000000000E-01
	O5	O	-3.310000000000E-02	-1.286000000000E-01	8.490000000000E-02
	O6	O	8.490000000000E-02	-3.310000000000E-02	-1.286000000000E-01
	O7	O	-4.669000000000E-01	1.286000000000E-01	-4.151000000000E-01
	O8	O	-8.490000000000E-02	4.669000000000E-01	-3.714000000000E-01
	O9	O	4.669000000000E-01	-3.714000000000E-01	-8.490000000000E-02
	O10	O	4.151000000000E-01	3.310000000000E-02	3.714000000000E-01
	O11	O	3.310000000000E-02	3.714000000000E-01	4.151000000000E-01
	O12	O	-4.151000000000E-01	-4.669000000000E-01	1.286000000000E-01
	O13	O	1.286000000000E-01	-8.490000000000E-02	3.310000000000E-02
	O14	O	3.714000000000E-01	8.490000000000E-02	-4.669000000000E-01
	O15	O	-3.714000000000E-01	-4.151000000000E-01	-3.310000000000E-02
	O16	O	-1.286000000000E-01	4.151000000000E-01	4.669000000000E-01
	O17	O	3.310000000000E-02	1.286000000000E-01	-8.490000000000E-02
	O18	O	-8.490000000000E-02	3.310000000000E-02	1.286000000000E-01
	O19	O	4.669000000000E-01	-1.286000000000E-01	4.151000000000E-01
	O20	O	8.490000000000E-02	-4.669000000000E-01	3.714000000000E-01
	O21	O	-4.669000000000E-01	3.714000000000E-01	8.490000000000E-02
	O22	O	-4.151000000000E-01	-3.310000000000E-02	-3.714000000000E-01
	O23	O	-3.310000000000E-02	-3.714000000000E-01	-4.151000000000E-01
	O24	O	4.151000000000E-01	4.669000000000E-01	-1.286000000000E-01
	O25	O	-2.510000000000E-01	1.920000000000E-02	7.690000000000E-02
	O26	O	-2.490000000000E-01	-1.920000000000E-02	-4.231000000000E-01
	O27	O	2.490000000000E-01	4.808000000000E-01	-7.690000000000E-02
	O28	O	2.510000000000E-01	-4.808000000000E-01	4.231000000000E-01
	O29	O	7.690000000000E-02	-2.510000000000E-01	1.920000000000E-02
	O30	O	1.920000000000E-02	7.690000000000E-02	-2.510000000000E-01
	O31	O	4.231000000000E-01	2.510000000000E-01	-4.808000000000E-01
	O32	O	-1.920000000000E-02	-4.231000000000E-01	-2.490000000000E-01
	O33	O	-4.231000000000E-01	-2.490000000000E-01	-1.920000000000E-02
	O34	O	4.808000000000E-01	-7.690000000000E-02	2.490000000000E-01
	O35	O	-7.690000000000E-02	2.490000000000E-01	4.808000000000E-01
	O36	O	-4.808000000000E-01	4.231000000000E-01	2.510000000000E-01
	O37	O	2.510000000000E-01	-1.920000000000E-02	-7.690000000000E-02
	O38	O	2.490000000000E-01	1.920000000000E-02	4.231000000000E-01
	O39	O	-2.490000000000E-01	-4.808000000000E-01	7.690000000000E-02
	O40	O	-2.510000000000E-01	4.808000000000E-01	-4.231000000000E-01
	O41	O	-7.690000000000E-02	2.510000000000E-01	-1.920000000000E-02
	O42	O	-1.920000000000E-02	-7.690000000000E-02	2.510000000000E-01
	O43	O	-4.231000000000E-01	-2.510000000000E-01	4.808000000000E-01
	O44	O	1.920000000000E-02	4.231000000000E-01	2.490000000000E-01
	O45	O	4.231000000000E-01	2.490000000000E-01	1.920000000000E-02
	O46	O	-4.808000000000E-01	7.690000000000E-02	-2.490000000000E-01
	O47	O	7.690000000000E-02	-2.490000000000E-01	-4.808000000000E-01
	O48	O	4.808000000000E-01	-4.231000000000E-01	-2.510000000000E-01
	O49	O	-1.792000000000E-01	1.797000000000E-01	1.032000000000E-01
	O50	O	-3.208000000000E-01	-1.797000000000E-01	-3.968000000000E-01
	O51	O	3.208000000000E-01	3.203000000000E-01	-1.032000000000E-01
	O52	O	1.792000000000E-01	-3.203000000000E-01	3.968000000000E-01
	O53	O	1.032000000000E-01	-1.792000000000E-01	1.797000000000E-01
	O54	O	1.797000000000E-01	1.032000000000E-01	-1.792000000000E-01
	O55	O	3.968000000000E-01	1.792000000000E-01	-3.203000000000E-01
	O56	O	-1.797000000000E-01	-3.968000000000E-01	-3.208000000000E-01
	O57	O	-3.968000000000E-01	-3.208000000000E-01	-1.797000000000E-01
	O58	O	3.203000000000E-01	-1.032000000000E-01	3.208000000000E-01
	O59	O	-1.032000000000E-01	3.208000000000E-01	3.203000000000E-01
	O60	O	-3.203000000000E-01	3.968000000000E-01	1.792000000000E-01
	O61	O	1.792000000000E-01	-1.797000000000E-01	-1.032000000000E-01
	O62	O	3.208000000000E-01	1.797000000000E-01	3.968000000000E-01
	O63	O	-3.208000000000E-01	-3.203000000000E-01	1.032000000000E-01
	O64	O	-1.792000000000E-01	3.203000000000E-01	-3.968000000000E-01
	O65	O	-1.032000000000E-01	1.792000000000E-01	-1.797000000000E-01
	O66	O	-1.797000000000E-01	-1.032000000000E-01	1.792000000000E-01
	O67	O	-3.968000000000E-01	-1.792000000000E-01	3.203000000000E-01
	O68	O	1.797000000000E-01	3.968000000000E-01	3.208000000000E-01
	O69	O	3.968000000000E-01	3.208000000000E-01	1.797000000000E-01
	O70	O	-3.203000000000E-01	1.032000000000E-01	-3.208000000000E-01
	O71	O	1.032000000000E-01	-3.208000000000E-01	-3.203000000000E-01
	O72	O	3.203000000000E-01	-3.968000000000E-01	-1.792000000000E-01
	O73	O	-6.020000000000E-02	2.995000000000E-01	1.505000000000E-01
	O74	O	-4.398000000000E-01	-2.995000000000E-01	-3.495000000000E-01
	O75	O	4.398000000000E-01	2.005000000000E-01	-1.505000000000E-01
	O76	O	6.020000000000E-02	-2.005000000000E-01	3.495000000000E-01
	O77	O	1.505000000000E-01	-6.020000000000E-02	2.995000000000E-01
	O78	O	2.995000000000E-01	1.505000000000E-01	-6.020000000000E-02
	O79	O	3.495000000000E-01	6.020000000000E-02	-2.005000000000E-01
	O80	O	-2.995000000000E-01	-3.495000000000E-01	-4.398000000000E-01
	O81	O	-3.495000000000E-01	-4.398000000000E-01	-2.995000000000E-01
	O82	O	2.005000000000E-01	-1.505000000000E-01	4.398000000000E-01
	O83	O	-1.505000000000E-01	4.398000000000E-01	2.005000000000E-01
	O84	O	-2.005000000000E-01	3.495000000000E-01	6.020000000000E-02
	O85	O	6.020000000000E-02	-2.995000000000E-01	-1.505000000000E-01
	O86	O	4.398000000000E-01	2.995000000000E-01	3.495000000000E-01
	O87	O	-4.398000000000E-01	-2.005000000000E-01	1.505000000000E-01
	O88	O	-6.020000000000E-02	2.005000000000E-01	-3.495000000000E-01
	O89	O	-1.505000000000E-01	6.020000000000E-02	-2.995000000000E-01
	O90	O	-2.995000000000E-01	-1.505000000000E-01	6.020000000000E-02
	O91	O	-3.495000000000E-01	-6.020000000000E-02	2.005000000000E-01
	O92	O	2.995000000000E-01	3.495000000000E-01	4.398000000000E-01
	O93	O	3.495000000000E-01	4.398000000000E-01	2.995000000000E-01
	O94	O	-2.005000000000E-01	1.505000000000E-01	-4.398000000000E-01
	O95	O	1.505000000000E-01	-4.398000000000E-01	-2.005000000000E-01
	O96	O	2.005000000000E-01	-3.495000000000E-01	-6.020000000000E-02
	Si97	Si	-1.620000000000E-01	7.910000000000E-02	6.910000000000E-02
	Si98	Si	-3.380000000000E-01	-7.910000000000E-02	-4.309000000000E-01
	Si99	Si	3.380000000000E-01	4.209000000000E-01	-6.910000000000E-02
	Si100	Si	1.620000000000E-01	-4.209000000000E-01	4.309000000000E-01
	Si101	Si	6.910000000000E-02	-1.620000000000E-01	7.910000000000E-02
	Si102	Si	7.910000000000E-02	6.910000000000E-02	-1.620000000000E-01
	Si103	Si	4.309000000000E-01	1.620000000000E-01	-4.209000000000E-01
	Si104	Si	-7.910000000000E-02	-4.309000000000E-01	-3.380000000000E-01
	Si105	Si	-4.309000000000E-01	-3.380000000000E-01	-7.910000000000E-02
	Si106	Si	4.209000000000E-01	-6.910000000000E-02	3.380000000000E-01
	Si107	Si	-6.910000000000E-02	3.380000000000E-01	4.209000000000E-01
	Si108	Si	-4.209000000000E-01	4.309000000000E-01	1.620000000000E-01
	Si109	Si	1.620000000000E-01	-7.910000000000E-02	-6.910000000000E-02
	Si110	Si	3.380000000000E-01	7.910000000000E-02	4.309000000000E-01
	Si111	Si	-3.380000000000E-01	-4.209000000000E-01	6.910000000000E-02
	Si112	Si	-1.620000000000E-01	4.209000000000E-01	-4.309000000000E-01
	Si113	Si	-6.910000000000E-02	1.620000000000E-01	-7.910000000000E-02
	Si114	Si	-7.910000000000E-02	-6.910000000000E-02	1.620000000000E-01
	Si115	Si	-4.309000000000E-01	-1.620000000000E-01	4.209000000000E-01
	Si116	Si	7.910000000000E-02	4.309000000000E-01	3.380000000000E-01
	Si117	Si	4.309000000000E-01	3.380000000000E-01	7.910000000000E-02
	Si118	Si	-4.209000000000E-01	6.910000000000E-02	-3.380000000000E-01
	Si119	Si	6.910000000000E-02	-3.380000000000E-01	-4.209000000000E-01
	Si120	Si	4.209000000000E-01	-4.309000000000E-01	-1.620000000000E-01
	Si121	Si	-1.290000000000E-01	2.701000000000E-01	7.310000000000E-02
	Si122	Si	-3.710000000000E-01	-2.701000000000E-01	-4.269000000000E-01
	Si123	Si	3.710000000000E-01	2.299000000000E-01	-7.310000000000E-02
	Si124	Si	1.290000000000E-01	-2.299000000000E-01	4.269000000000E-01
	Si125	Si	7.310000000000E-02	-1.290000000000E-01	2.701000000000E-01
	Si126	Si	2.701000000000E-01	7.310000000000E-02	-1.290000000000E-01
	Si127	Si	4.269000000000E-01	1.290000000000E-01	-2.299000000000E-01
	Si128	Si	-2.701000000000E-01	-4.269000000000E-01	-3.710000000000E-01
	Si129	Si	-4.269000000000E-01	-3.710000000000E-01	-2.701000000000E-01
	Si130	Si	2.299000000000E-01	-7.310000000000E-02	3.710000000000E-01
	Si131	Si	-7.310000000000E-02	3.710000000000E-01	2.299000000000E-01
	Si132	Si	-2.299000000000E-01	4.269000000000E-01	1.290000000000E-01
	Si133	Si	1.290000000000E-01	-2.701000000000E-01	-7.310000000000E-02
	Si134	Si	3.710000000000E-01	2.701000000000E-01	4.269000000000E-01
	Si135	Si	-3.710000000000E-01	-2.299000000000E-01	7.310000000000E-02
	Si136	Si	-1.290000000000E-01	2.299000000000E-01	-4.269000000000E-01
	Si137	Si	-7.310000000000E-02	1.290000000000E-01	-2.701000000000E-01
	Si138	Si	-2.701000000000E-01	-7.310000000000E-02	1.290000000000E-01
	Si139	Si	-4.269000000000E-01	-1.290000000000E-01	2.299000000000E-01
	Si140	Si	2.701000000000E-01	4.269000000000E-01	3.710000000000E-01
	Si141	Si	4.269000000000E-01	3.710000000000E-01	2.701000000000E-01
	Si142	Si	-2.299000000000E-01	7.310000000000E-02	-3.710000000000E-01
	Si143	Si	7.310000000000E-02	-3.710000000000E-01	-2.299000000000E-01
	Si144	Si	2.299000000000E-01	-4.269000000000E-01	-1.290000000000E-01
