data JSW
_chemical_name_common		'JSW'
_cell_length_a		16.01850000
_cell_length_b		9.66550000
_cell_length_c		16.83310000
_cell_angle_alpha		90.000000
_cell_angle_beta		90.000000
_cell_angle_gamma		90.000000
_space group_name_H-M_alt		'P 1'
_space_group_IT_number		1

loop_
	_atom_site_label
	_atom_site_type_symbol
	_atom_site_fract_x
	_atom_site_fract_y
	_atom_site_fract_z
	O1	O	1.826000000000E-01	4.890000000000E-02	-5.400000000000E-03
	O2	O	3.174000000000E-01	-4.890000000000E-02	4.946000000000E-01
	O3	O	-3.174000000000E-01	4.511000000000E-01	5.400000000000E-03
	O4	O	-1.826000000000E-01	-4.511000000000E-01	-4.946000000000E-01
	O5	O	-1.826000000000E-01	-4.890000000000E-02	5.400000000000E-03
	O6	O	-3.174000000000E-01	4.890000000000E-02	-4.946000000000E-01
	O7	O	3.174000000000E-01	-4.511000000000E-01	-5.400000000000E-03
	O8	O	1.826000000000E-01	4.511000000000E-01	4.946000000000E-01
	O9	O	2.901000000000E-01	1.604000000000E-01	9.520000000000E-02
	O10	O	2.099000000000E-01	-1.604000000000E-01	-4.048000000000E-01
	O11	O	-2.099000000000E-01	3.396000000000E-01	-9.520000000000E-02
	O12	O	-2.901000000000E-01	-3.396000000000E-01	4.048000000000E-01
	O13	O	-2.901000000000E-01	-1.604000000000E-01	-9.520000000000E-02
	O14	O	-2.099000000000E-01	1.604000000000E-01	4.048000000000E-01
	O15	O	2.099000000000E-01	-3.396000000000E-01	9.520000000000E-02
	O16	O	2.901000000000E-01	3.396000000000E-01	-4.048000000000E-01
	O17	O	2.168000000000E-01	-7.520000000000E-02	1.298000000000E-01
	O18	O	2.832000000000E-01	7.520000000000E-02	-3.702000000000E-01
	O19	O	-2.832000000000E-01	-4.248000000000E-01	-1.298000000000E-01
	O20	O	-2.168000000000E-01	4.248000000000E-01	3.702000000000E-01
	O21	O	-2.168000000000E-01	7.520000000000E-02	-1.298000000000E-01
	O22	O	-2.832000000000E-01	-7.520000000000E-02	3.702000000000E-01
	O23	O	2.832000000000E-01	4.248000000000E-01	1.298000000000E-01
	O24	O	2.168000000000E-01	-4.248000000000E-01	-3.702000000000E-01
	O25	O	1.308000000000E-01	1.554000000000E-01	1.298000000000E-01
	O26	O	3.692000000000E-01	-1.554000000000E-01	-3.702000000000E-01
	O27	O	-3.692000000000E-01	3.446000000000E-01	-1.298000000000E-01
	O28	O	-1.308000000000E-01	-3.446000000000E-01	3.702000000000E-01
	O29	O	-1.308000000000E-01	-1.554000000000E-01	-1.298000000000E-01
	O30	O	-3.692000000000E-01	1.554000000000E-01	3.702000000000E-01
	O31	O	3.692000000000E-01	-3.446000000000E-01	1.298000000000E-01
	O32	O	1.308000000000E-01	3.446000000000E-01	-3.702000000000E-01
	O33	O	7.620000000000E-02	-2.118000000000E-01	1.504000000000E-01
	O34	O	4.238000000000E-01	2.118000000000E-01	-3.496000000000E-01
	O35	O	-4.238000000000E-01	-2.882000000000E-01	-1.504000000000E-01
	O36	O	-7.620000000000E-02	2.882000000000E-01	3.496000000000E-01
	O37	O	-7.620000000000E-02	2.118000000000E-01	-1.504000000000E-01
	O38	O	-4.238000000000E-01	-2.118000000000E-01	3.496000000000E-01
	O39	O	4.238000000000E-01	2.882000000000E-01	1.504000000000E-01
	O40	O	7.620000000000E-02	-2.882000000000E-01	-3.496000000000E-01
	O41	O	2.039000000000E-01	-2.597000000000E-01	2.440000000000E-01
	O42	O	2.961000000000E-01	2.597000000000E-01	-2.560000000000E-01
	O43	O	-2.961000000000E-01	-2.403000000000E-01	-2.440000000000E-01
	O44	O	-2.039000000000E-01	2.403000000000E-01	2.560000000000E-01
	O45	O	-2.039000000000E-01	2.597000000000E-01	-2.440000000000E-01
	O46	O	-2.961000000000E-01	-2.597000000000E-01	2.560000000000E-01
	O47	O	2.961000000000E-01	2.403000000000E-01	2.440000000000E-01
	O48	O	2.039000000000E-01	-2.403000000000E-01	-2.560000000000E-01
	O49	O	-4.230000000000E-02	-2.164000000000E-01	2.595000000000E-01
	O50	O	-4.577000000000E-01	2.164000000000E-01	-2.405000000000E-01
	O51	O	4.577000000000E-01	-2.836000000000E-01	-2.595000000000E-01
	O52	O	4.230000000000E-02	2.836000000000E-01	2.405000000000E-01
	O53	O	4.230000000000E-02	2.164000000000E-01	-2.595000000000E-01
	O54	O	4.577000000000E-01	-2.164000000000E-01	2.405000000000E-01
	O55	O	-4.577000000000E-01	2.836000000000E-01	2.595000000000E-01
	O56	O	-4.230000000000E-02	-2.836000000000E-01	-2.405000000000E-01
	O57	O	-7.500000000000E-02	-1.257000000000E-01	1.152000000000E-01
	O58	O	-4.250000000000E-01	1.257000000000E-01	-3.848000000000E-01
	O59	O	4.250000000000E-01	-3.743000000000E-01	-1.152000000000E-01
	O60	O	7.500000000000E-02	3.743000000000E-01	3.848000000000E-01
	O61	O	7.500000000000E-02	1.257000000000E-01	-1.152000000000E-01
	O62	O	4.250000000000E-01	-1.257000000000E-01	3.848000000000E-01
	O63	O	-4.250000000000E-01	3.743000000000E-01	1.152000000000E-01
	O64	O	-7.500000000000E-02	-3.743000000000E-01	-3.848000000000E-01
	O65	O	1.900000000000E-02	1.960000000000E-02	2.126000000000E-01
	O66	O	4.810000000000E-01	-1.960000000000E-02	-2.874000000000E-01
	O67	O	-4.810000000000E-01	4.804000000000E-01	-2.126000000000E-01
	O68	O	-1.900000000000E-02	-4.804000000000E-01	2.874000000000E-01
	O69	O	-1.900000000000E-02	-1.960000000000E-02	-2.126000000000E-01
	O70	O	-4.810000000000E-01	1.960000000000E-02	2.874000000000E-01
	O71	O	4.810000000000E-01	-4.804000000000E-01	2.126000000000E-01
	O72	O	1.900000000000E-02	4.804000000000E-01	-2.874000000000E-01
	O73	O	1.584000000000E-01	1.054000000000E-01	2.804000000000E-01
	O74	O	3.416000000000E-01	-1.054000000000E-01	-2.196000000000E-01
	O75	O	-3.416000000000E-01	3.946000000000E-01	-2.804000000000E-01
	O76	O	-1.584000000000E-01	-3.946000000000E-01	2.196000000000E-01
	O77	O	-1.584000000000E-01	-1.054000000000E-01	-2.804000000000E-01
	O78	O	-3.416000000000E-01	1.054000000000E-01	2.196000000000E-01
	O79	O	3.416000000000E-01	-3.946000000000E-01	2.804000000000E-01
	O80	O	1.584000000000E-01	3.946000000000E-01	-2.196000000000E-01
	O81	O	3.000000000000E-01	3.690000000000E-02	3.477000000000E-01
	O82	O	2.000000000000E-01	-3.690000000000E-02	-1.523000000000E-01
	O83	O	-2.000000000000E-01	4.631000000000E-01	-3.477000000000E-01
	O84	O	-3.000000000000E-01	-4.631000000000E-01	1.523000000000E-01
	O85	O	-3.000000000000E-01	-3.690000000000E-02	-3.477000000000E-01
	O86	O	-2.000000000000E-01	3.690000000000E-02	1.523000000000E-01
	O87	O	2.000000000000E-01	-4.631000000000E-01	3.477000000000E-01
	O88	O	3.000000000000E-01	4.631000000000E-01	-1.523000000000E-01
	O89	O	2.726000000000E-01	-2.254000000000E-01	3.835000000000E-01
	O90	O	2.274000000000E-01	2.254000000000E-01	-1.165000000000E-01
	O91	O	-2.274000000000E-01	-2.746000000000E-01	-3.835000000000E-01
	O92	O	-2.726000000000E-01	2.746000000000E-01	1.165000000000E-01
	O93	O	-2.726000000000E-01	2.254000000000E-01	-3.835000000000E-01
	O94	O	-2.274000000000E-01	-2.254000000000E-01	1.165000000000E-01
	O95	O	2.274000000000E-01	2.746000000000E-01	3.835000000000E-01
	O96	O	2.726000000000E-01	-2.746000000000E-01	-1.165000000000E-01
	Si97	Si	2.053000000000E-01	7.220000000000E-02	8.670000000000E-02
	Si98	Si	2.947000000000E-01	-7.220000000000E-02	-4.133000000000E-01
	Si99	Si	-2.947000000000E-01	4.278000000000E-01	-8.670000000000E-02
	Si100	Si	-2.053000000000E-01	-4.278000000000E-01	4.133000000000E-01
	Si101	Si	-2.053000000000E-01	-7.220000000000E-02	-8.670000000000E-02
	Si102	Si	-2.947000000000E-01	7.220000000000E-02	4.133000000000E-01
	Si103	Si	2.947000000000E-01	-4.278000000000E-01	8.670000000000E-02
	Si104	Si	2.053000000000E-01	4.278000000000E-01	-4.133000000000E-01
	Si105	Si	-5.400000000000E-03	-1.341000000000E-01	1.841000000000E-01
	Si106	Si	-4.946000000000E-01	1.341000000000E-01	-3.159000000000E-01
	Si107	Si	4.946000000000E-01	-3.659000000000E-01	-1.841000000000E-01
	Si108	Si	5.400000000000E-03	3.659000000000E-01	3.159000000000E-01
	Si109	Si	5.400000000000E-03	1.341000000000E-01	-1.841000000000E-01
	Si110	Si	4.946000000000E-01	-1.341000000000E-01	3.159000000000E-01
	Si111	Si	-4.946000000000E-01	3.659000000000E-01	1.841000000000E-01
	Si112	Si	-5.400000000000E-03	-3.659000000000E-01	-3.159000000000E-01
	Si113	Si	2.456000000000E-01	1.639000000000E-01	3.141000000000E-01
	Si114	Si	2.544000000000E-01	-1.639000000000E-01	-1.859000000000E-01
	Si115	Si	-2.544000000000E-01	3.361000000000E-01	-3.141000000000E-01
	Si116	Si	-2.456000000000E-01	-3.361000000000E-01	1.859000000000E-01
	Si117	Si	-2.456000000000E-01	-1.639000000000E-01	-3.141000000000E-01
	Si118	Si	-2.544000000000E-01	1.639000000000E-01	1.859000000000E-01
	Si119	Si	2.544000000000E-01	-3.361000000000E-01	3.141000000000E-01
	Si120	Si	2.456000000000E-01	3.361000000000E-01	-1.859000000000E-01
	Si121	Si	3.284000000000E-01	-9.090000000000E-02	4.027000000000E-01
	Si122	Si	1.716000000000E-01	9.090000000000E-02	-9.730000000000E-02
	Si123	Si	-1.716000000000E-01	-4.091000000000E-01	-4.027000000000E-01
	Si124	Si	-3.284000000000E-01	4.091000000000E-01	9.730000000000E-02
	Si125	Si	-3.284000000000E-01	9.090000000000E-02	-4.027000000000E-01
	Si126	Si	-1.716000000000E-01	-9.090000000000E-02	9.730000000000E-02
	Si127	Si	1.716000000000E-01	4.091000000000E-01	4.027000000000E-01
	Si128	Si	3.284000000000E-01	-4.091000000000E-01	-9.730000000000E-02
	Si129	Si	1.764000000000E-01	-2.215000000000E-01	1.547000000000E-01
	Si130	Si	3.236000000000E-01	2.215000000000E-01	-3.453000000000E-01
	Si131	Si	-3.236000000000E-01	-2.785000000000E-01	-1.547000000000E-01
	Si132	Si	-1.764000000000E-01	2.785000000000E-01	3.453000000000E-01
	Si133	Si	-1.764000000000E-01	2.215000000000E-01	-1.547000000000E-01
	Si134	Si	-3.236000000000E-01	-2.215000000000E-01	3.453000000000E-01
	Si135	Si	3.236000000000E-01	2.785000000000E-01	1.547000000000E-01
	Si136	Si	1.764000000000E-01	-2.785000000000E-01	-3.453000000000E-01
	Si137	Si	8.750000000000E-02	1.413000000000E-01	2.158000000000E-01
	Si138	Si	4.125000000000E-01	-1.413000000000E-01	-2.842000000000E-01
	Si139	Si	-4.125000000000E-01	3.587000000000E-01	-2.158000000000E-01
	Si140	Si	-8.750000000000E-02	-3.587000000000E-01	2.842000000000E-01
	Si141	Si	-8.750000000000E-02	-1.413000000000E-01	-2.158000000000E-01
	Si142	Si	-4.125000000000E-01	1.413000000000E-01	2.842000000000E-01
	Si143	Si	4.125000000000E-01	-3.587000000000E-01	2.158000000000E-01
	Si144	Si	8.750000000000E-02	3.587000000000E-01	-2.842000000000E-01
