data KFI
_chemical_name_common		'KFI'
_cell_length_a		16.08901995
_cell_length_b		16.08901995
_cell_length_c		16.08901995
_cell_angle_alpha		109.471221
_cell_angle_beta		109.471221
_cell_angle_gamma		109.471221
_space group_name_H-M_alt		'P 1'
_space_group_IT_number		1

loop_
	_atom_site_label
	_atom_site_type_symbol
	_atom_site_fract_x
	_atom_site_fract_y
	_atom_site_fract_z
	O1	O	-4.796000000000E-01	3.348000000000E-01	1.856000000000E-01
	O2	O	1.492000000000E-01	3.348000000000E-01	-1.856000000000E-01
	O3	O	4.796000000000E-01	-3.348000000000E-01	-1.856000000000E-01
	O4	O	-1.492000000000E-01	-3.348000000000E-01	1.856000000000E-01
	O5	O	1.856000000000E-01	-4.796000000000E-01	3.348000000000E-01
	O6	O	3.348000000000E-01	1.856000000000E-01	-4.796000000000E-01
	O7	O	1.856000000000E-01	-1.492000000000E-01	-3.348000000000E-01
	O8	O	3.348000000000E-01	-1.856000000000E-01	1.492000000000E-01
	O9	O	-1.856000000000E-01	1.492000000000E-01	3.348000000000E-01
	O10	O	-3.348000000000E-01	-1.856000000000E-01	4.796000000000E-01
	O11	O	-1.856000000000E-01	4.796000000000E-01	-3.348000000000E-01
	O12	O	-3.348000000000E-01	1.856000000000E-01	-1.492000000000E-01
	O13	O	-3.348000000000E-01	4.796000000000E-01	-1.856000000000E-01
	O14	O	-3.348000000000E-01	-1.492000000000E-01	1.856000000000E-01
	O15	O	3.348000000000E-01	-4.796000000000E-01	1.856000000000E-01
	O16	O	3.348000000000E-01	1.492000000000E-01	-1.856000000000E-01
	O17	O	4.796000000000E-01	-1.856000000000E-01	-3.348000000000E-01
	O18	O	-1.856000000000E-01	-3.348000000000E-01	4.796000000000E-01
	O19	O	1.492000000000E-01	-1.856000000000E-01	3.348000000000E-01
	O20	O	1.856000000000E-01	-3.348000000000E-01	-1.492000000000E-01
	O21	O	-1.492000000000E-01	1.856000000000E-01	-3.348000000000E-01
	O22	O	1.856000000000E-01	3.348000000000E-01	-4.796000000000E-01
	O23	O	-4.796000000000E-01	1.856000000000E-01	3.348000000000E-01
	O24	O	-1.856000000000E-01	3.348000000000E-01	1.492000000000E-01
	O25	O	4.896000000000E-01	3.366000000000E-01	3.366000000000E-01
	O26	O	-1.106294413420E-18	1.530000000000E-01	-3.366000000000E-01
	O27	O	-4.896000000000E-01	-1.530000000000E-01	-1.530000000000E-01
	O28	O	1.106294413420E-18	-3.366000000000E-01	1.530000000000E-01
	O29	O	3.366000000000E-01	4.896000000000E-01	3.366000000000E-01
	O30	O	3.366000000000E-01	3.366000000000E-01	4.896000000000E-01
	O31	O	1.530000000000E-01	-1.106294413420E-18	-3.366000000000E-01
	O32	O	1.530000000000E-01	-3.366000000000E-01	-1.106294413420E-18
	O33	O	-3.366000000000E-01	-3.806969358561E-18	1.530000000000E-01
	O34	O	-1.530000000000E-01	-1.530000000000E-01	-4.896000000000E-01
	O35	O	-1.530000000000E-01	-4.896000000000E-01	-1.530000000000E-01
	O36	O	-3.366000000000E-01	1.530000000000E-01	-3.806969358561E-18
	O37	O	-3.366000000000E-01	-4.896000000000E-01	-3.366000000000E-01
	O38	O	-1.530000000000E-01	1.106294413420E-18	3.366000000000E-01
	O39	O	1.530000000000E-01	4.896000000000E-01	1.530000000000E-01
	O40	O	3.366000000000E-01	3.806969358561E-18	-1.530000000000E-01
	O41	O	-4.896000000000E-01	-3.366000000000E-01	-3.366000000000E-01
	O42	O	-3.366000000000E-01	-3.366000000000E-01	-4.896000000000E-01
	O43	O	1.106294413420E-18	-1.530000000000E-01	3.366000000000E-01
	O44	O	3.366000000000E-01	-1.530000000000E-01	3.806969358561E-18
	O45	O	-1.106294413420E-18	3.366000000000E-01	-1.530000000000E-01
	O46	O	1.530000000000E-01	1.530000000000E-01	4.896000000000E-01
	O47	O	4.896000000000E-01	1.530000000000E-01	1.530000000000E-01
	O48	O	-1.530000000000E-01	3.366000000000E-01	1.106294413420E-18
	O49	O	-3.658000000000E-01	-5.000000000000E-01	3.658000000000E-01
	O50	O	1.342000000000E-01	2.684000000000E-01	-3.658000000000E-01
	O51	O	3.658000000000E-01	-2.684000000000E-01	-1.342000000000E-01
	O52	O	-1.342000000000E-01	-5.000000000000E-01	1.342000000000E-01
	O53	O	3.658000000000E-01	-3.658000000000E-01	-5.000000000000E-01
	O54	O	-5.000000000000E-01	3.658000000000E-01	-3.658000000000E-01
	O55	O	1.342000000000E-01	-1.342000000000E-01	-5.000000000000E-01
	O56	O	2.684000000000E-01	-3.658000000000E-01	1.342000000000E-01
	O57	O	-3.658000000000E-01	1.342000000000E-01	2.684000000000E-01
	O58	O	-2.684000000000E-01	-1.342000000000E-01	3.658000000000E-01
	O59	O	-1.342000000000E-01	3.658000000000E-01	-2.684000000000E-01
	O60	O	-5.000000000000E-01	1.342000000000E-01	-1.342000000000E-01
	O61	O	3.658000000000E-01	-5.000000000000E-01	-3.658000000000E-01
	O62	O	-1.342000000000E-01	-2.684000000000E-01	3.658000000000E-01
	O63	O	-3.658000000000E-01	2.684000000000E-01	1.342000000000E-01
	O64	O	1.342000000000E-01	-5.000000000000E-01	-1.342000000000E-01
	O65	O	-3.658000000000E-01	3.658000000000E-01	-5.000000000000E-01
	O66	O	-5.000000000000E-01	-3.658000000000E-01	3.658000000000E-01
	O67	O	-1.342000000000E-01	1.342000000000E-01	5.000000000000E-01
	O68	O	-2.684000000000E-01	3.658000000000E-01	-1.342000000000E-01
	O69	O	3.658000000000E-01	-1.342000000000E-01	-2.684000000000E-01
	O70	O	2.684000000000E-01	1.342000000000E-01	-3.658000000000E-01
	O71	O	1.342000000000E-01	-3.658000000000E-01	2.684000000000E-01
	O72	O	-5.000000000000E-01	-1.342000000000E-01	1.342000000000E-01
	O73	O	4.420000000000E-01	4.420000000000E-01	2.542000000000E-01
	O74	O	1.878000000000E-01	1.878000000000E-01	-2.542000000000E-01
	O75	O	-4.420000000000E-01	-1.878000000000E-01	7.998740809055E-18
	O76	O	-1.878000000000E-01	-4.420000000000E-01	-7.998740809055E-18
	O77	O	2.542000000000E-01	4.420000000000E-01	4.420000000000E-01
	O78	O	4.420000000000E-01	2.542000000000E-01	4.420000000000E-01
	O79	O	4.751241042220E-17	-1.878000000000E-01	-4.420000000000E-01
	O80	O	1.878000000000E-01	-2.542000000000E-01	1.878000000000E-01
	O81	O	-2.542000000000E-01	1.878000000000E-01	1.878000000000E-01
	O82	O	-1.878000000000E-01	-6.350989204031E-17	-4.420000000000E-01
	O83	O	-4.996904230819E-17	-4.420000000000E-01	-1.878000000000E-01
	O84	O	-4.420000000000E-01	1.091945157276E-16	-1.878000000000E-01
	O85	O	-4.420000000000E-01	-4.420000000000E-01	-2.542000000000E-01
	O86	O	-1.878000000000E-01	-1.878000000000E-01	2.542000000000E-01
	O87	O	1.878000000000E-01	4.420000000000E-01	6.350989204031E-17
	O88	O	4.420000000000E-01	1.878000000000E-01	-5.613999638234E-17
	O89	O	-4.420000000000E-01	-2.542000000000E-01	-4.420000000000E-01
	O90	O	-2.542000000000E-01	-4.420000000000E-01	-4.420000000000E-01
	O91	O	1.878000000000E-01	-1.730020292058E-17	4.420000000000E-01
	O92	O	2.542000000000E-01	-1.878000000000E-01	-1.878000000000E-01
	O93	O	-1.878000000000E-01	2.542000000000E-01	-1.878000000000E-01
	O94	O	8.389557199797E-17	1.878000000000E-01	4.420000000000E-01
	O95	O	4.420000000000E-01	-7.998740809055E-18	1.878000000000E-01
	O96	O	-3.329768453869E-17	4.420000000000E-01	1.878000000000E-01
	Si97	Si	-4.783000000000E-01	4.034000000000E-01	2.857000000000E-01
	Si98	Si	1.177000000000E-01	2.360000000000E-01	-2.857000000000E-01
	Si99	Si	4.783000000000E-01	-2.360000000000E-01	-1.183000000000E-01
	Si100	Si	-1.177000000000E-01	-4.034000000000E-01	1.183000000000E-01
	Si101	Si	2.857000000000E-01	-4.783000000000E-01	4.034000000000E-01
	Si102	Si	4.034000000000E-01	2.857000000000E-01	-4.783000000000E-01
	Si103	Si	1.183000000000E-01	-1.177000000000E-01	-4.034000000000E-01
	Si104	Si	2.360000000000E-01	-2.857000000000E-01	1.177000000000E-01
	Si105	Si	-2.857000000000E-01	1.177000000000E-01	2.360000000000E-01
	Si106	Si	-2.360000000000E-01	-1.183000000000E-01	4.783000000000E-01
	Si107	Si	-1.183000000000E-01	4.783000000000E-01	-2.360000000000E-01
	Si108	Si	-4.034000000000E-01	1.183000000000E-01	-1.177000000000E-01
	Si109	Si	-4.034000000000E-01	4.783000000000E-01	-2.857000000000E-01
	Si110	Si	-2.360000000000E-01	-1.177000000000E-01	2.857000000000E-01
	Si111	Si	2.360000000000E-01	-4.783000000000E-01	1.183000000000E-01
	Si112	Si	4.034000000000E-01	1.177000000000E-01	-1.183000000000E-01
	Si113	Si	4.783000000000E-01	-2.857000000000E-01	-4.034000000000E-01
	Si114	Si	-2.857000000000E-01	-4.034000000000E-01	4.783000000000E-01
	Si115	Si	1.177000000000E-01	-1.183000000000E-01	4.034000000000E-01
	Si116	Si	2.857000000000E-01	-2.360000000000E-01	-1.177000000000E-01
	Si117	Si	-1.177000000000E-01	2.857000000000E-01	-2.360000000000E-01
	Si118	Si	1.183000000000E-01	2.360000000000E-01	-4.783000000000E-01
	Si119	Si	-4.783000000000E-01	1.183000000000E-01	2.360000000000E-01
	Si120	Si	-1.183000000000E-01	4.034000000000E-01	1.177000000000E-01
	Si121	Si	4.783000000000E-01	-4.034000000000E-01	-2.857000000000E-01
	Si122	Si	-1.177000000000E-01	-2.360000000000E-01	2.857000000000E-01
	Si123	Si	-4.783000000000E-01	2.360000000000E-01	1.183000000000E-01
	Si124	Si	1.177000000000E-01	4.034000000000E-01	-1.183000000000E-01
	Si125	Si	-2.857000000000E-01	4.783000000000E-01	-4.034000000000E-01
	Si126	Si	-4.034000000000E-01	-2.857000000000E-01	4.783000000000E-01
	Si127	Si	-1.183000000000E-01	1.177000000000E-01	4.034000000000E-01
	Si128	Si	-2.360000000000E-01	2.857000000000E-01	-1.177000000000E-01
	Si129	Si	2.857000000000E-01	-1.177000000000E-01	-2.360000000000E-01
	Si130	Si	2.360000000000E-01	1.183000000000E-01	-4.783000000000E-01
	Si131	Si	1.183000000000E-01	-4.783000000000E-01	2.360000000000E-01
	Si132	Si	4.034000000000E-01	-1.183000000000E-01	1.177000000000E-01
	Si133	Si	4.034000000000E-01	-4.783000000000E-01	2.857000000000E-01
	Si134	Si	2.360000000000E-01	1.177000000000E-01	-2.857000000000E-01
	Si135	Si	-2.360000000000E-01	4.783000000000E-01	-1.183000000000E-01
	Si136	Si	-4.034000000000E-01	-1.177000000000E-01	1.183000000000E-01
	Si137	Si	-4.783000000000E-01	2.857000000000E-01	4.034000000000E-01
	Si138	Si	2.857000000000E-01	4.034000000000E-01	-4.783000000000E-01
	Si139	Si	-1.177000000000E-01	1.183000000000E-01	-4.034000000000E-01
	Si140	Si	-2.857000000000E-01	2.360000000000E-01	1.177000000000E-01
	Si141	Si	1.177000000000E-01	-2.857000000000E-01	2.360000000000E-01
	Si142	Si	-1.183000000000E-01	-2.360000000000E-01	4.783000000000E-01
	Si143	Si	4.783000000000E-01	-1.183000000000E-01	-2.360000000000E-01
	Si144	Si	1.183000000000E-01	-4.034000000000E-01	-1.177000000000E-01
