data LAU
_chemical_name_common		'LAU'
_cell_length_a		9.72879358
_cell_length_b		19.45758716
_cell_length_c		7.61300000
_cell_angle_alpha		74.299839
_cell_angle_beta		105.700161
_cell_angle_gamma		97.125653
_space group_name_H-M_alt		'P 1'
_space_group_IT_number		1

loop_
	_atom_site_label
	_atom_site_type_symbol
	_atom_site_fract_x
	_atom_site_fract_y
	_atom_site_fract_z
	O1	O	-3.040000000000E-01	-3.400000000000E-03	2.784000000000E-01
	O2	O	-6.800000000000E-03	-1.520000000000E-01	-2.784000000000E-01
	O3	O	3.040000000000E-01	3.400000000000E-03	-2.784000000000E-01
	O4	O	6.800000000000E-03	1.520000000000E-01	2.784000000000E-01
	O5	O	-2.640000000000E-01	1.320000000000E-01	2.857000000000E-01
	O6	O	2.640000000000E-01	-1.320000000000E-01	-2.857000000000E-01
	O7	O	4.780000000000E-01	6.920000000000E-02	2.537000000000E-01
	O8	O	1.384000000000E-01	2.390000000000E-01	-2.537000000000E-01
	O9	O	-4.780000000000E-01	-6.920000000000E-02	-2.537000000000E-01
	O10	O	-1.384000000000E-01	-2.390000000000E-01	2.537000000000E-01
	O11	O	-3.266000000000E-01	3.560000000000E-02	-4.264000000000E-01
	O12	O	7.120000000000E-02	-1.633000000000E-01	4.264000000000E-01
	O13	O	3.266000000000E-01	-3.560000000000E-02	4.264000000000E-01
	O14	O	-7.120000000000E-02	1.633000000000E-01	-4.264000000000E-01
	O15	O	-2.723000000000E-01	7.500000000000E-04	-5.670000000000E-02
	O16	O	1.500000000000E-03	-1.361500000000E-01	5.670000000000E-02
	O17	O	2.723000000000E-01	-7.500000000000E-04	5.670000000000E-02
	O18	O	-1.500000000000E-03	1.361500000000E-01	-5.670000000000E-02
	O19	O	-2.094000000000E-01	-8.560000000000E-02	-2.326000000000E-01
	O20	O	-1.712000000000E-01	-1.047000000000E-01	2.326000000000E-01
	O21	O	2.094000000000E-01	8.560000000000E-02	2.326000000000E-01
	O22	O	1.712000000000E-01	1.047000000000E-01	-2.326000000000E-01
	O23	O	-4.930000000000E-02	2.465000000000E-02	2.099000000000E-01
	O24	O	4.930000000000E-02	-2.465000000000E-02	-2.099000000000E-01
	Si25	Si	-3.541000000000E-01	5.835000000000E-02	3.478000000000E-01
	Si26	Si	1.167000000000E-01	-1.770500000000E-01	-3.478000000000E-01
	Si27	Si	3.541000000000E-01	-5.835000000000E-02	-3.478000000000E-01
	Si28	Si	-1.167000000000E-01	1.770500000000E-01	3.478000000000E-01
	Si29	Si	-3.216000000000E-01	-2.960000000000E-02	-2.424000000000E-01
	Si30	Si	-5.920000000000E-02	-1.608000000000E-01	2.424000000000E-01
	Si31	Si	3.216000000000E-01	2.960000000000E-02	2.424000000000E-01
	Si32	Si	5.920000000000E-02	1.608000000000E-01	-2.424000000000E-01
	Si33	Si	-1.992000000000E-01	-2.060000000000E-02	1.660000000000E-01
	Si34	Si	-4.120000000000E-02	-9.960000000000E-02	-1.660000000000E-01
	Si35	Si	1.992000000000E-01	2.060000000000E-02	-1.660000000000E-01
	Si36	Si	4.120000000000E-02	9.960000000000E-02	1.660000000000E-01
	O37	O	-2.640000000000E-01	-3.680000000000E-01	2.857000000000E-01
	O38	O	-2.094000000000E-01	4.144000000000E-01	-2.326000000000E-01
	O39	O	-1.384000000000E-01	2.610000000000E-01	2.537000000000E-01
	O40	O	-1.712000000000E-01	3.953000000000E-01	2.326000000000E-01
	O41	O	3.040000000000E-01	-4.966000000000E-01	-2.784000000000E-01
	O42	O	2.094000000000E-01	-4.144000000000E-01	2.326000000000E-01
	O43	O	-3.266000000000E-01	-4.644000000000E-01	-4.264000000000E-01
	O44	O	1.712000000000E-01	-3.953000000000E-01	-2.326000000000E-01
	O45	O	2.640000000000E-01	3.680000000000E-01	-2.857000000000E-01
	O46	O	-4.930000000000E-02	-4.753500000000E-01	2.099000000000E-01
	O47	O	7.120000000000E-02	3.367000000000E-01	4.264000000000E-01
	O48	O	4.930000000000E-02	4.753500000000E-01	-2.099000000000E-01
	O49	O	-6.800000000000E-03	3.480000000000E-01	-2.784000000000E-01
	Si50	Si	-3.541000000000E-01	-4.416500000000E-01	3.478000000000E-01
	O51	O	3.266000000000E-01	4.644000000000E-01	4.264000000000E-01
	Si52	Si	1.167000000000E-01	3.229500000000E-01	-3.478000000000E-01
	O53	O	4.780000000000E-01	-4.308000000000E-01	2.537000000000E-01
	Si54	Si	3.541000000000E-01	4.416500000000E-01	-3.478000000000E-01
	O55	O	-7.120000000000E-02	-3.367000000000E-01	-4.264000000000E-01
	Si56	Si	-1.167000000000E-01	-3.229500000000E-01	3.478000000000E-01
	O57	O	6.800000000000E-03	-3.480000000000E-01	2.784000000000E-01
	Si58	Si	-3.216000000000E-01	4.704000000000E-01	-2.424000000000E-01
	O59	O	-2.723000000000E-01	-4.992500000000E-01	-5.670000000000E-02
	Si60	Si	-5.920000000000E-02	3.392000000000E-01	2.424000000000E-01
	O61	O	1.384000000000E-01	-2.610000000000E-01	-2.537000000000E-01
	Si62	Si	3.216000000000E-01	-4.704000000000E-01	2.424000000000E-01
	O63	O	1.500000000000E-03	3.638500000000E-01	5.670000000000E-02
	Si64	Si	5.920000000000E-02	-3.392000000000E-01	-2.424000000000E-01
	O65	O	-3.040000000000E-01	4.966000000000E-01	2.784000000000E-01
	Si66	Si	-1.992000000000E-01	4.794000000000E-01	1.660000000000E-01
	O67	O	2.723000000000E-01	4.992500000000E-01	5.670000000000E-02
	Si68	Si	-4.120000000000E-02	4.004000000000E-01	-1.660000000000E-01
	O69	O	-4.780000000000E-01	4.308000000000E-01	-2.537000000000E-01
	Si70	Si	1.992000000000E-01	-4.794000000000E-01	-1.660000000000E-01
	O71	O	-1.500000000000E-03	-3.638500000000E-01	-5.670000000000E-02
	Si72	Si	4.120000000000E-02	-4.004000000000E-01	1.660000000000E-01
