data LEV
_chemical_name_common		'LEV'
_cell_length_a		21.39527213
_cell_length_b		10.69763606
_cell_length_c		10.69763606
_cell_angle_alpha		75.971152
_cell_angle_beta		75.971152
_cell_angle_gamma		75.971152
_space group_name_H-M_alt		'P 1'
_space_group_IT_number		1

loop_
	_atom_site_label
	_atom_site_type_symbol
	_atom_site_fract_x
	_atom_site_fract_y
	_atom_site_fract_z
	O1	O	8.630000000000E-02	-1.139000000000E-01	1.726000000000E-01
	O2	O	8.630000000000E-02	1.726000000000E-01	-1.139000000000E-01
	O3	O	-5.695000000000E-02	1.726000000000E-01	1.726000000000E-01
	O4	O	5.695000000000E-02	-1.726000000000E-01	-1.726000000000E-01
	O5	O	-8.630000000000E-02	-1.726000000000E-01	1.139000000000E-01
	O6	O	-8.630000000000E-02	1.139000000000E-01	-1.726000000000E-01
	O7	O	7.220000000000E-02	4.198000000000E-01	-2.351000000000E-01
	O8	O	-1.175500000000E-01	1.444000000000E-01	4.198000000000E-01
	O9	O	2.099000000000E-01	-2.351000000000E-01	1.444000000000E-01
	O10	O	-2.099000000000E-01	-1.444000000000E-01	2.351000000000E-01
	O11	O	-7.220000000000E-02	2.351000000000E-01	-4.198000000000E-01
	O12	O	1.175500000000E-01	-4.198000000000E-01	-1.444000000000E-01
	O13	O	-7.220000000000E-02	-4.198000000000E-01	2.351000000000E-01
	O14	O	1.175500000000E-01	-1.444000000000E-01	-4.198000000000E-01
	O15	O	-2.099000000000E-01	2.351000000000E-01	-1.444000000000E-01
	O16	O	2.099000000000E-01	1.444000000000E-01	-2.351000000000E-01
	O17	O	7.220000000000E-02	-2.351000000000E-01	4.198000000000E-01
	O18	O	-1.175500000000E-01	4.198000000000E-01	1.444000000000E-01
	O19	O	-2.070000000000E-02	3.414000000000E-01	-4.140000000000E-02
	O20	O	-2.070000000000E-02	-4.140000000000E-02	3.414000000000E-01
	O21	O	1.707000000000E-01	-4.140000000000E-02	-4.140000000000E-02
	O22	O	-1.707000000000E-01	4.140000000000E-02	4.140000000000E-02
	O23	O	2.070000000000E-02	4.140000000000E-02	-3.414000000000E-01
	O24	O	2.070000000000E-02	-3.414000000000E-01	4.140000000000E-02
	O25	O	1.339000000000E-01	-2.678000000000E-01	4.960035816638E-17
	O26	O	-1.035604561067E-17	2.678000000000E-01	-2.678000000000E-01
	O27	O	-1.339000000000E-01	-7.632804274553E-17	2.678000000000E-01
	O28	O	-1.339000000000E-01	2.678000000000E-01	-4.960035816638E-17
	O29	O	1.035604561067E-17	-2.678000000000E-01	2.678000000000E-01
	O30	O	1.339000000000E-01	7.632804274553E-17	-2.678000000000E-01
	O31	O	-1.996000000000E-01	2.627100000000E-01	-3.992000000000E-01
	O32	O	-1.996000000000E-01	-3.992000000000E-01	2.627100000000E-01
	O33	O	1.313550000000E-01	-3.992000000000E-01	-3.992000000000E-01
	O34	O	-1.313550000000E-01	3.992000000000E-01	3.992000000000E-01
	O35	O	1.996000000000E-01	3.992000000000E-01	-2.627100000000E-01
	O36	O	1.996000000000E-01	-2.627100000000E-01	3.992000000000E-01
	Si37	Si	3.440000000000E-02	3.005000000000E-01	-1.644000000000E-01
	Si38	Si	-8.220000000000E-02	6.880000000000E-02	3.005000000000E-01
	Si39	Si	1.502500000000E-01	-1.644000000000E-01	6.880000000000E-02
	Si40	Si	-1.502500000000E-01	-6.880000000000E-02	1.644000000000E-01
	Si41	Si	-3.440000000000E-02	1.644000000000E-01	-3.005000000000E-01
	Si42	Si	8.220000000000E-02	-3.005000000000E-01	-6.880000000000E-02
	Si43	Si	-3.440000000000E-02	-3.005000000000E-01	1.644000000000E-01
	Si44	Si	8.220000000000E-02	-6.880000000000E-02	-3.005000000000E-01
	Si45	Si	-1.502500000000E-01	1.644000000000E-01	-6.880000000000E-02
	Si46	Si	1.502500000000E-01	6.880000000000E-02	-1.644000000000E-01
	Si47	Si	3.440000000000E-02	-1.644000000000E-01	3.005000000000E-01
	Si48	Si	-8.220000000000E-02	3.005000000000E-01	6.880000000000E-02
	Si49	Si	-1.301500000000E-01	2.603000000000E-01	5.000000000000E-01
	Si50	Si	2.500000000000E-01	-2.603000000000E-01	2.603000000000E-01
	Si51	Si	1.301500000000E-01	5.000000000000E-01	-2.603000000000E-01
	Si52	Si	1.301500000000E-01	-2.603000000000E-01	-5.000000000000E-01
	Si53	Si	2.500000000000E-01	2.603000000000E-01	-2.603000000000E-01
	Si54	Si	-1.301500000000E-01	-5.000000000000E-01	2.603000000000E-01
	O55	O	-3.824500000000E-01	-1.444000000000E-01	-4.198000000000E-01
	O56	O	3.661000000000E-01	2.678000000000E-01	0.000000000000E+00
	O57	O	-4.430500000000E-01	-1.726000000000E-01	-1.726000000000E-01
	O58	O	-5.000000000000E-01	-2.678000000000E-01	2.678000000000E-01
	O59	O	2.901000000000E-01	2.351000000000E-01	-1.444000000000E-01
	O60	O	-3.661000000000E-01	5.551115123126E-17	-2.678000000000E-01
	O61	O	3.824500000000E-01	1.444000000000E-01	4.198000000000E-01
	O62	O	3.004000000000E-01	2.627100000000E-01	-3.992000000000E-01
	O63	O	-2.901000000000E-01	1.444000000000E-01	-2.351000000000E-01
	O64	O	3.004000000000E-01	-3.992000000000E-01	2.627100000000E-01
	O65	O	-4.137000000000E-01	-1.139000000000E-01	1.726000000000E-01
	O66	O	-3.686450000000E-01	-3.992000000000E-01	-3.992000000000E-01
	O67	O	-4.278000000000E-01	-2.351000000000E-01	4.198000000000E-01
	O68	O	3.686450000000E-01	3.992000000000E-01	3.992000000000E-01
	O69	O	-2.901000000000E-01	-2.351000000000E-01	1.444000000000E-01
	O70	O	-3.004000000000E-01	3.992000000000E-01	-2.627100000000E-01
	O71	O	3.824500000000E-01	4.198000000000E-01	1.444000000000E-01
	O72	O	-3.004000000000E-01	-2.627100000000E-01	3.992000000000E-01
	O73	O	4.137000000000E-01	-1.726000000000E-01	1.139000000000E-01
	Si74	Si	-4.656000000000E-01	3.005000000000E-01	-1.644000000000E-01
	O75	O	4.793000000000E-01	3.414000000000E-01	-4.140000000000E-02
	Si76	Si	4.178000000000E-01	6.880000000000E-02	3.005000000000E-01
	O77	O	2.901000000000E-01	-1.444000000000E-01	2.351000000000E-01
	Si78	Si	-3.497500000000E-01	-1.644000000000E-01	6.880000000000E-02
	O79	O	4.793000000000E-01	-4.140000000000E-02	3.414000000000E-01
	Si80	Si	3.497500000000E-01	-6.880000000000E-02	1.644000000000E-01
	O81	O	4.430500000000E-01	1.726000000000E-01	1.726000000000E-01
	Si82	Si	4.656000000000E-01	1.644000000000E-01	-3.005000000000E-01
	O83	O	-3.293000000000E-01	-4.140000000000E-02	-4.140000000000E-02
	Si84	Si	-4.178000000000E-01	-3.005000000000E-01	-6.880000000000E-02
	O85	O	4.278000000000E-01	2.351000000000E-01	-4.198000000000E-01
	Si86	Si	4.656000000000E-01	-3.005000000000E-01	1.644000000000E-01
	O87	O	3.293000000000E-01	4.140000000000E-02	4.140000000000E-02
	Si88	Si	-4.178000000000E-01	-6.880000000000E-02	-3.005000000000E-01
	O89	O	4.137000000000E-01	1.139000000000E-01	-1.726000000000E-01
	Si90	Si	3.497500000000E-01	1.644000000000E-01	-6.880000000000E-02
	O91	O	-4.793000000000E-01	4.140000000000E-02	-3.414000000000E-01
	Si92	Si	-3.497500000000E-01	6.880000000000E-02	-1.644000000000E-01
	O93	O	-3.824500000000E-01	-4.198000000000E-01	-1.444000000000E-01
	Si94	Si	-4.656000000000E-01	-1.644000000000E-01	3.005000000000E-01
	O95	O	-4.793000000000E-01	-3.414000000000E-01	4.140000000000E-02
	Si96	Si	4.178000000000E-01	3.005000000000E-01	6.880000000000E-02
	O97	O	-4.137000000000E-01	1.726000000000E-01	-1.139000000000E-01
	Si98	Si	3.698500000000E-01	2.603000000000E-01	-5.000000000000E-01
	O99	O	-3.661000000000E-01	-2.678000000000E-01	-1.110223024625E-16
	Si100	Si	-2.500000000000E-01	-2.603000000000E-01	2.603000000000E-01
	O101	O	4.278000000000E-01	-4.198000000000E-01	2.351000000000E-01
	Si102	Si	-3.698500000000E-01	5.000000000000E-01	-2.603000000000E-01
	O103	O	-5.000000000000E-01	2.678000000000E-01	-2.678000000000E-01
	Si104	Si	-3.698500000000E-01	-2.603000000000E-01	5.000000000000E-01
	O105	O	-4.278000000000E-01	4.198000000000E-01	-2.351000000000E-01
	Si106	Si	-2.500000000000E-01	2.603000000000E-01	-2.603000000000E-01
	O107	O	3.661000000000E-01	0.000000000000E+00	2.678000000000E-01
	Si108	Si	3.698500000000E-01	5.000000000000E-01	2.603000000000E-01
