data LIO
_chemical_name_common		'LIO'
_cell_length_a		12.28100000
_cell_length_b		12.28100000
_cell_length_c		15.63200000
_cell_angle_alpha		90.000000
_cell_angle_beta		90.000000
_cell_angle_gamma		120.000000
_space group_name_H-M_alt		'P 1'
_space_group_IT_number		1

loop_
	_atom_site_label
	_atom_site_type_symbol
	_atom_site_fract_x
	_atom_site_fract_y
	_atom_site_fract_z
	O1	O	3.166000000000E-01	-2.300000000000E-02	8.400000000000E-02
	O2	O	2.300000000000E-02	3.396000000000E-01	8.400000000000E-02
	O3	O	-3.396000000000E-01	-3.166000000000E-01	8.400000000000E-02
	O4	O	2.300000000000E-02	-3.166000000000E-01	-8.400000000000E-02
	O5	O	3.166000000000E-01	3.396000000000E-01	-8.400000000000E-02
	O6	O	-3.396000000000E-01	-2.300000000000E-02	-8.400000000000E-02
	O7	O	-3.396000000000E-01	-2.300000000000E-02	8.400000000000E-02
	O8	O	3.166000000000E-01	3.396000000000E-01	8.400000000000E-02
	O9	O	2.300000000000E-02	-3.166000000000E-01	8.400000000000E-02
	O10	O	3.166000000000E-01	-2.300000000000E-02	-8.400000000000E-02
	O11	O	-3.396000000000E-01	-3.166000000000E-01	-8.400000000000E-02
	O12	O	2.300000000000E-02	3.396000000000E-01	-8.400000000000E-02
	O13	O	2.314000000000E-01	-2.314000000000E-01	1.732000000000E-01
	O14	O	2.314000000000E-01	4.628000000000E-01	1.732000000000E-01
	O15	O	-4.628000000000E-01	-2.314000000000E-01	1.732000000000E-01
	O16	O	2.314000000000E-01	-2.314000000000E-01	-1.732000000000E-01
	O17	O	2.314000000000E-01	4.628000000000E-01	-1.732000000000E-01
	O18	O	-4.628000000000E-01	-2.314000000000E-01	-1.732000000000E-01
	O19	O	3.004000000000E-01	-1.700000000000E-02	2.512000000000E-01
	O20	O	1.700000000000E-02	3.174000000000E-01	2.512000000000E-01
	O21	O	-3.174000000000E-01	-3.004000000000E-01	2.512000000000E-01
	O22	O	1.700000000000E-02	-3.004000000000E-01	-2.512000000000E-01
	O23	O	3.004000000000E-01	3.174000000000E-01	-2.512000000000E-01
	O24	O	-3.174000000000E-01	-1.700000000000E-02	-2.512000000000E-01
	O25	O	-3.174000000000E-01	-1.700000000000E-02	2.512000000000E-01
	O26	O	3.004000000000E-01	3.174000000000E-01	2.512000000000E-01
	O27	O	1.700000000000E-02	-3.004000000000E-01	2.512000000000E-01
	O28	O	3.004000000000E-01	-1.700000000000E-02	-2.512000000000E-01
	O29	O	-3.174000000000E-01	-3.004000000000E-01	-2.512000000000E-01
	O30	O	1.700000000000E-02	3.174000000000E-01	-2.512000000000E-01
	O31	O	4.708000000000E-01	-4.708000000000E-01	1.813000000000E-01
	O32	O	4.708000000000E-01	-5.840000000000E-02	1.813000000000E-01
	O33	O	5.840000000000E-02	-4.708000000000E-01	1.813000000000E-01
	O34	O	4.708000000000E-01	-4.708000000000E-01	-1.813000000000E-01
	O35	O	4.708000000000E-01	-5.840000000000E-02	-1.813000000000E-01
	O36	O	5.840000000000E-02	-4.708000000000E-01	-1.813000000000E-01
	O37	O	-1.294000000000E-01	1.294000000000E-01	3.521000000000E-01
	O38	O	-1.294000000000E-01	-2.588000000000E-01	3.521000000000E-01
	O39	O	2.588000000000E-01	1.294000000000E-01	3.521000000000E-01
	O40	O	-1.294000000000E-01	1.294000000000E-01	-3.521000000000E-01
	O41	O	-1.294000000000E-01	-2.588000000000E-01	-3.521000000000E-01
	O42	O	2.588000000000E-01	1.294000000000E-01	-3.521000000000E-01
	O43	O	1.158000000000E-01	-1.158000000000E-01	3.632000000000E-01
	O44	O	1.158000000000E-01	2.316000000000E-01	3.632000000000E-01
	O45	O	-2.316000000000E-01	-1.158000000000E-01	3.632000000000E-01
	O46	O	1.158000000000E-01	-1.158000000000E-01	-3.632000000000E-01
	O47	O	1.158000000000E-01	2.316000000000E-01	-3.632000000000E-01
	O48	O	-2.316000000000E-01	-1.158000000000E-01	-3.632000000000E-01
	O49	O	3.503000000000E-01	-5.900000000000E-03	4.159000000000E-01
	O50	O	5.900000000000E-03	3.562000000000E-01	4.159000000000E-01
	O51	O	-3.562000000000E-01	-3.503000000000E-01	4.159000000000E-01
	O52	O	5.900000000000E-03	-3.503000000000E-01	-4.159000000000E-01
	O53	O	3.503000000000E-01	3.562000000000E-01	-4.159000000000E-01
	O54	O	-3.562000000000E-01	-5.900000000000E-03	-4.159000000000E-01
	O55	O	-3.562000000000E-01	-5.900000000000E-03	4.159000000000E-01
	O56	O	3.503000000000E-01	3.562000000000E-01	4.159000000000E-01
	O57	O	5.900000000000E-03	-3.503000000000E-01	4.159000000000E-01
	O58	O	3.503000000000E-01	-5.900000000000E-03	-4.159000000000E-01
	O59	O	-3.562000000000E-01	-3.503000000000E-01	-4.159000000000E-01
	O60	O	5.900000000000E-03	3.562000000000E-01	-4.159000000000E-01
	O61	O	-1.964500000000E-01	1.964500000000E-01	-5.000000000000E-01
	O62	O	-1.964500000000E-01	-3.929000000000E-01	-5.000000000000E-01
	O63	O	3.929000000000E-01	1.964500000000E-01	-5.000000000000E-01
	O64	O	-4.372500000000E-01	4.372500000000E-01	-5.000000000000E-01
	O65	O	-4.372500000000E-01	1.255000000000E-01	-5.000000000000E-01
	O66	O	-1.255000000000E-01	4.372500000000E-01	-5.000000000000E-01
	O67	O	-1.368000000000E-01	1.368000000000E-01	0.000000000000E+00
	O68	O	-1.368000000000E-01	-2.736000000000E-01	0.000000000000E+00
	O69	O	2.736000000000E-01	1.368000000000E-01	0.000000000000E+00
	O70	O	1.043000000000E-01	-1.043000000000E-01	0.000000000000E+00
	O71	O	1.043000000000E-01	2.086000000000E-01	0.000000000000E+00
	O72	O	-2.086000000000E-01	-1.043000000000E-01	0.000000000000E+00
	Si73	Si	3.299000000000E-01	-8.260000000000E-02	1.724000000000E-01
	Si74	Si	8.260000000000E-02	4.125000000000E-01	1.724000000000E-01
	Si75	Si	-4.125000000000E-01	-3.299000000000E-01	1.724000000000E-01
	Si76	Si	8.260000000000E-02	-3.299000000000E-01	-1.724000000000E-01
	Si77	Si	3.299000000000E-01	4.125000000000E-01	-1.724000000000E-01
	Si78	Si	-4.125000000000E-01	-8.260000000000E-02	-1.724000000000E-01
	Si79	Si	-4.125000000000E-01	-8.260000000000E-02	1.724000000000E-01
	Si80	Si	3.299000000000E-01	4.125000000000E-01	1.724000000000E-01
	Si81	Si	8.260000000000E-02	-3.299000000000E-01	1.724000000000E-01
	Si82	Si	3.299000000000E-01	-8.260000000000E-02	-1.724000000000E-01
	Si83	Si	-4.125000000000E-01	-3.299000000000E-01	-1.724000000000E-01
	Si84	Si	8.260000000000E-02	4.125000000000E-01	-1.724000000000E-01
	Si85	Si	2.563000000000E-01	-2.500000000000E-03	3.453000000000E-01
	Si86	Si	2.500000000000E-03	2.588000000000E-01	3.453000000000E-01
	Si87	Si	-2.588000000000E-01	-2.563000000000E-01	3.453000000000E-01
	Si88	Si	2.500000000000E-03	-2.563000000000E-01	-3.453000000000E-01
	Si89	Si	2.563000000000E-01	2.588000000000E-01	-3.453000000000E-01
	Si90	Si	-2.588000000000E-01	-2.500000000000E-03	-3.453000000000E-01
	Si91	Si	-2.588000000000E-01	-2.500000000000E-03	3.453000000000E-01
	Si92	Si	2.563000000000E-01	2.588000000000E-01	3.453000000000E-01
	Si93	Si	2.500000000000E-03	-2.563000000000E-01	3.453000000000E-01
	Si94	Si	2.563000000000E-01	-2.500000000000E-03	-3.453000000000E-01
	Si95	Si	-2.588000000000E-01	-2.563000000000E-01	-3.453000000000E-01
	Si96	Si	2.500000000000E-03	2.588000000000E-01	-3.453000000000E-01
	Si97	Si	4.145000000000E-01	7.770000000000E-02	-5.000000000000E-01
	Si98	Si	-7.770000000000E-02	3.368000000000E-01	-5.000000000000E-01
	Si99	Si	-3.368000000000E-01	-4.145000000000E-01	-5.000000000000E-01
	Si100	Si	-7.770000000000E-02	-4.145000000000E-01	-5.000000000000E-01
	Si101	Si	4.145000000000E-01	3.368000000000E-01	-5.000000000000E-01
	Si102	Si	-3.368000000000E-01	7.770000000000E-02	-5.000000000000E-01
	Si103	Si	2.525000000000E-01	-3.400000000000E-03	0.000000000000E+00
	Si104	Si	3.400000000000E-03	2.559000000000E-01	0.000000000000E+00
	Si105	Si	-2.559000000000E-01	-2.525000000000E-01	0.000000000000E+00
	Si106	Si	3.400000000000E-03	-2.525000000000E-01	0.000000000000E+00
	Si107	Si	2.525000000000E-01	2.559000000000E-01	0.000000000000E+00
	Si108	Si	-2.559000000000E-01	-3.400000000000E-03	0.000000000000E+00
