data LOS
_chemical_name_common		'LOS'
_cell_length_a		12.60700000
_cell_length_b		12.60700000
_cell_length_c		20.68000000
_cell_angle_alpha		90.000000
_cell_angle_beta		90.000000
_cell_angle_gamma		120.000000
_space group_name_H-M_alt		'P 1'
_space_group_IT_number		1

loop_
	_atom_site_label
	_atom_site_type_symbol
	_atom_site_fract_x
	_atom_site_fract_y
	_atom_site_fract_z
	O1	O	-2.355500000000E-01	-4.711000000000E-01	1.250000000000E-01
	O2	O	2.355500000000E-01	4.711000000000E-01	-1.250000000000E-01
	O3	O	4.711000000000E-01	2.355500000000E-01	1.250000000000E-01
	O4	O	-2.355500000000E-01	2.355500000000E-01	1.250000000000E-01
	O5	O	2.355500000000E-01	-2.355500000000E-01	-1.250000000000E-01
	O6	O	-4.711000000000E-01	-2.355500000000E-01	-1.250000000000E-01
	O7	O	3.372000000000E-01	3.040000000000E-02	6.145000000000E-02
	O8	O	-3.372000000000E-01	-3.040000000000E-02	-1.885500000000E-01
	O9	O	-3.040000000000E-02	3.068000000000E-01	6.145000000000E-02
	O10	O	-3.068000000000E-01	-3.372000000000E-01	6.145000000000E-02
	O11	O	3.068000000000E-01	3.372000000000E-01	-1.885500000000E-01
	O12	O	3.040000000000E-02	-3.068000000000E-01	-1.885500000000E-01
	O13	O	3.068000000000E-01	-3.040000000000E-02	-6.145000000000E-02
	O14	O	-3.372000000000E-01	-3.068000000000E-01	-6.145000000000E-02
	O15	O	3.040000000000E-02	3.372000000000E-01	-6.145000000000E-02
	O16	O	-3.040000000000E-02	-3.372000000000E-01	1.885500000000E-01
	O17	O	3.372000000000E-01	3.068000000000E-01	1.885500000000E-01
	O18	O	-3.068000000000E-01	3.040000000000E-02	1.885500000000E-01
	O19	O	-3.372000000000E-01	-3.040000000000E-02	-6.145000000000E-02
	O20	O	3.372000000000E-01	3.040000000000E-02	1.885500000000E-01
	O21	O	3.040000000000E-02	-3.068000000000E-01	-6.145000000000E-02
	O22	O	3.068000000000E-01	3.372000000000E-01	-6.145000000000E-02
	O23	O	-3.068000000000E-01	-3.372000000000E-01	1.885500000000E-01
	O24	O	-3.040000000000E-02	3.068000000000E-01	1.885500000000E-01
	O25	O	-3.068000000000E-01	3.040000000000E-02	6.145000000000E-02
	O26	O	3.372000000000E-01	3.068000000000E-01	6.145000000000E-02
	O27	O	-3.040000000000E-02	-3.372000000000E-01	6.145000000000E-02
	O28	O	3.040000000000E-02	3.372000000000E-01	-1.885500000000E-01
	O29	O	-3.372000000000E-01	-3.068000000000E-01	-1.885500000000E-01
	O30	O	3.068000000000E-01	-3.040000000000E-02	-1.885500000000E-01
	O31	O	-4.681500000000E-01	6.370000000000E-02	1.250000000000E-01
	O32	O	4.681500000000E-01	-6.370000000000E-02	-1.250000000000E-01
	O33	O	-6.370000000000E-02	4.681500000000E-01	1.250000000000E-01
	O34	O	-4.681500000000E-01	4.681500000000E-01	1.250000000000E-01
	O35	O	4.681500000000E-01	-4.681500000000E-01	-1.250000000000E-01
	O36	O	6.370000000000E-02	-4.681500000000E-01	-1.250000000000E-01
	O37	O	-1.163000000000E-01	-2.326000000000E-01	-2.337000000000E-01
	O38	O	1.163000000000E-01	2.326000000000E-01	1.630000000000E-02
	O39	O	2.326000000000E-01	1.163000000000E-01	-2.337000000000E-01
	O40	O	-1.163000000000E-01	1.163000000000E-01	-2.337000000000E-01
	O41	O	1.163000000000E-01	-1.163000000000E-01	1.630000000000E-02
	O42	O	-2.326000000000E-01	-1.163000000000E-01	1.630000000000E-02
	O43	O	1.163000000000E-01	2.326000000000E-01	2.337000000000E-01
	O44	O	1.163000000000E-01	-1.163000000000E-01	2.337000000000E-01
	O45	O	-2.326000000000E-01	-1.163000000000E-01	2.337000000000E-01
	O46	O	2.326000000000E-01	1.163000000000E-01	-1.630000000000E-02
	O47	O	-1.163000000000E-01	1.163000000000E-01	-1.630000000000E-02
	O48	O	-1.163000000000E-01	-2.326000000000E-01	-1.630000000000E-02
	Si49	Si	4.195000000000E-01	9.000000000000E-02	1.250000000000E-01
	Si50	Si	-4.195000000000E-01	-9.000000000000E-02	-1.250000000000E-01
	Si51	Si	-9.000000000000E-02	3.295000000000E-01	1.250000000000E-01
	Si52	Si	-3.295000000000E-01	-4.195000000000E-01	1.250000000000E-01
	Si53	Si	3.295000000000E-01	4.195000000000E-01	-1.250000000000E-01
	Si54	Si	9.000000000000E-02	-3.295000000000E-01	-1.250000000000E-01
	Si55	Si	3.295000000000E-01	-9.000000000000E-02	-1.250000000000E-01
	Si56	Si	-4.195000000000E-01	-3.295000000000E-01	-1.250000000000E-01
	Si57	Si	9.000000000000E-02	4.195000000000E-01	-1.250000000000E-01
	Si58	Si	-9.000000000000E-02	-4.195000000000E-01	1.250000000000E-01
	Si59	Si	4.195000000000E-01	3.295000000000E-01	1.250000000000E-01
	Si60	Si	-3.295000000000E-01	9.000000000000E-02	1.250000000000E-01
	Si61	Si	2.482000000000E-01	-2.775557561563E-17	0.000000000000E+00
	Si62	Si	-2.482000000000E-01	-1.387778780781E-17	2.500000000000E-01
	Si63	Si	0.000000000000E+00	2.482000000000E-01	0.000000000000E+00
	Si64	Si	-2.482000000000E-01	-2.482000000000E-01	0.000000000000E+00
	Si65	Si	2.482000000000E-01	2.482000000000E-01	2.500000000000E-01
	Si66	Si	0.000000000000E+00	-2.482000000000E-01	2.500000000000E-01
	Si67	Si	-2.482000000000E-01	-1.387778780781E-17	0.000000000000E+00
	Si68	Si	2.482000000000E-01	1.387778780781E-17	2.500000000000E-01
	Si69	Si	0.000000000000E+00	-2.482000000000E-01	0.000000000000E+00
	Si70	Si	2.482000000000E-01	2.482000000000E-01	0.000000000000E+00
	Si71	Si	-2.482000000000E-01	-2.482000000000E-01	2.500000000000E-01
	Si72	Si	0.000000000000E+00	2.482000000000E-01	2.500000000000E-01
	O73	O	2.355500000000E-01	-2.355500000000E-01	3.750000000000E-01
	O74	O	-1.163000000000E-01	-2.326000000000E-01	2.663000000000E-01
	O75	O	-3.372000000000E-01	-3.040000000000E-02	4.385500000000E-01
	O76	O	1.163000000000E-01	2.326000000000E-01	-4.837000000000E-01
	O77	O	-3.068000000000E-01	-3.372000000000E-01	-4.385500000000E-01
	O78	O	2.326000000000E-01	1.163000000000E-01	2.663000000000E-01
	O79	O	3.372000000000E-01	3.040000000000E-02	-3.114500000000E-01
	O80	O	-1.163000000000E-01	1.163000000000E-01	2.663000000000E-01
	O81	O	4.711000000000E-01	2.355500000000E-01	-3.750000000000E-01
	O82	O	1.163000000000E-01	-1.163000000000E-01	-4.837000000000E-01
	O83	O	3.040000000000E-02	-3.068000000000E-01	4.385500000000E-01
	O84	O	-2.326000000000E-01	-1.163000000000E-01	-4.837000000000E-01
	O85	O	3.068000000000E-01	3.372000000000E-01	3.114500000000E-01
	O86	O	1.163000000000E-01	2.326000000000E-01	-2.663000000000E-01
	O87	O	3.068000000000E-01	3.372000000000E-01	4.385500000000E-01
	O88	O	1.163000000000E-01	-1.163000000000E-01	-2.663000000000E-01
	O89	O	-4.711000000000E-01	-2.355500000000E-01	3.750000000000E-01
	O90	O	-2.326000000000E-01	-1.163000000000E-01	-2.663000000000E-01
	O91	O	-3.068000000000E-01	-3.372000000000E-01	-3.114500000000E-01
	O92	O	2.326000000000E-01	1.163000000000E-01	4.837000000000E-01
	O93	O	3.040000000000E-02	-3.068000000000E-01	3.114500000000E-01
	O94	O	-1.163000000000E-01	1.163000000000E-01	4.837000000000E-01
	O95	O	-3.040000000000E-02	3.068000000000E-01	-3.114500000000E-01
	O96	O	-1.163000000000E-01	-2.326000000000E-01	4.837000000000E-01
	O97	O	2.355500000000E-01	4.711000000000E-01	3.750000000000E-01
	Si98	Si	4.195000000000E-01	9.000000000000E-02	-3.750000000000E-01
	O99	O	-3.068000000000E-01	3.040000000000E-02	-4.385500000000E-01
	Si100	Si	-4.195000000000E-01	-9.000000000000E-02	3.750000000000E-01
	O101	O	3.068000000000E-01	-3.040000000000E-02	4.385500000000E-01
	Si102	Si	-9.000000000000E-02	3.295000000000E-01	-3.750000000000E-01
	O103	O	3.372000000000E-01	3.068000000000E-01	-4.385500000000E-01
	Si104	Si	-3.295000000000E-01	-4.195000000000E-01	-3.750000000000E-01
	O105	O	3.372000000000E-01	3.040000000000E-02	-4.385500000000E-01
	Si106	Si	3.295000000000E-01	4.195000000000E-01	3.750000000000E-01
	O107	O	-3.040000000000E-02	-3.372000000000E-01	-4.385500000000E-01
	Si108	Si	9.000000000000E-02	-3.295000000000E-01	3.750000000000E-01
	O109	O	-3.372000000000E-01	-3.068000000000E-01	4.385500000000E-01
	Si110	Si	3.295000000000E-01	-9.000000000000E-02	3.750000000000E-01
	O111	O	3.040000000000E-02	3.372000000000E-01	3.114500000000E-01
	Si112	Si	-4.195000000000E-01	-3.295000000000E-01	3.750000000000E-01
	O113	O	-2.355500000000E-01	2.355500000000E-01	-3.750000000000E-01
	Si114	Si	9.000000000000E-02	4.195000000000E-01	3.750000000000E-01
	O115	O	-3.372000000000E-01	-3.068000000000E-01	3.114500000000E-01
	Si116	Si	-9.000000000000E-02	-4.195000000000E-01	-3.750000000000E-01
	O117	O	3.040000000000E-02	3.372000000000E-01	4.385500000000E-01
	Si118	Si	4.195000000000E-01	3.295000000000E-01	-3.750000000000E-01
	O119	O	3.068000000000E-01	-3.040000000000E-02	3.114500000000E-01
	Si120	Si	-3.295000000000E-01	9.000000000000E-02	-3.750000000000E-01
	O121	O	-3.372000000000E-01	-3.040000000000E-02	3.114500000000E-01
	Si122	Si	2.482000000000E-01	-2.775557561563E-17	-5.000000000000E-01
	O123	O	-4.681500000000E-01	6.370000000000E-02	-3.750000000000E-01
	Si124	Si	-2.482000000000E-01	-1.387778780781E-17	-2.500000000000E-01
	O125	O	-3.040000000000E-02	-3.372000000000E-01	-3.114500000000E-01
	Si126	Si	0.000000000000E+00	2.482000000000E-01	-5.000000000000E-01
	O127	O	4.681500000000E-01	-6.370000000000E-02	3.750000000000E-01
	Si128	Si	-2.482000000000E-01	-2.482000000000E-01	-5.000000000000E-01
	O129	O	-2.355500000000E-01	-4.711000000000E-01	-3.750000000000E-01
	Si130	Si	2.482000000000E-01	2.482000000000E-01	-2.500000000000E-01
	O131	O	-6.370000000000E-02	4.681500000000E-01	-3.750000000000E-01
	Si132	Si	0.000000000000E+00	-2.482000000000E-01	-2.500000000000E-01
	O133	O	3.372000000000E-01	3.068000000000E-01	-3.114500000000E-01
	Si134	Si	-2.482000000000E-01	-1.387778780781E-17	-5.000000000000E-01
	O135	O	-4.681500000000E-01	4.681500000000E-01	-3.750000000000E-01
	Si136	Si	2.482000000000E-01	1.387778780781E-17	-2.500000000000E-01
	O137	O	-3.040000000000E-02	3.068000000000E-01	-4.385500000000E-01
	Si138	Si	0.000000000000E+00	-2.482000000000E-01	-5.000000000000E-01
	O139	O	4.681500000000E-01	-4.681500000000E-01	3.750000000000E-01
	Si140	Si	2.482000000000E-01	2.482000000000E-01	-5.000000000000E-01
	O141	O	-3.068000000000E-01	3.040000000000E-02	-3.114500000000E-01
	Si142	Si	-2.482000000000E-01	-2.482000000000E-01	-2.500000000000E-01
	O143	O	6.370000000000E-02	-4.681500000000E-01	3.750000000000E-01
	Si144	Si	0.000000000000E+00	2.482000000000E-01	-2.500000000000E-01
