data LTA
_chemical_name_common		'LTA'
_cell_length_a		11.91900000
_cell_length_b		11.91900000
_cell_length_c		11.91900000
_cell_angle_alpha		90.000000
_cell_angle_beta		90.000000
_cell_angle_gamma		90.000000
_space group_name_H-M_alt		'P 1'
_space_group_IT_number		1

loop_
	_atom_site_label
	_atom_site_type_symbol
	_atom_site_fract_x
	_atom_site_fract_y
	_atom_site_fract_z
	O1	O	0.000000000000E+00	2.122000000000E-01	-5.000000000000E-01
	O2	O	0.000000000000E+00	-2.122000000000E-01	-5.000000000000E-01
	O3	O	5.000000000000E-01	0.000000000000E+00	2.122000000000E-01
	O4	O	2.122000000000E-01	-5.000000000000E-01	0.000000000000E+00
	O5	O	-2.122000000000E-01	-5.000000000000E-01	0.000000000000E+00
	O6	O	5.000000000000E-01	0.000000000000E+00	-2.122000000000E-01
	O7	O	-2.122000000000E-01	0.000000000000E+00	-5.000000000000E-01
	O8	O	2.122000000000E-01	0.000000000000E+00	-5.000000000000E-01
	O9	O	0.000000000000E+00	-5.000000000000E-01	-2.122000000000E-01
	O10	O	5.000000000000E-01	-2.122000000000E-01	0.000000000000E+00
	O11	O	5.000000000000E-01	2.122000000000E-01	0.000000000000E+00
	O12	O	0.000000000000E+00	-5.000000000000E-01	2.122000000000E-01
	O13	O	1.103000000000E-01	1.103000000000E-01	3.384000000000E-01
	O14	O	-1.103000000000E-01	-1.103000000000E-01	3.384000000000E-01
	O15	O	1.103000000000E-01	-1.103000000000E-01	-3.384000000000E-01
	O16	O	-1.103000000000E-01	1.103000000000E-01	-3.384000000000E-01
	O17	O	3.384000000000E-01	1.103000000000E-01	1.103000000000E-01
	O18	O	1.103000000000E-01	3.384000000000E-01	1.103000000000E-01
	O19	O	-3.384000000000E-01	-1.103000000000E-01	1.103000000000E-01
	O20	O	-1.103000000000E-01	3.384000000000E-01	-1.103000000000E-01
	O21	O	3.384000000000E-01	-1.103000000000E-01	-1.103000000000E-01
	O22	O	-1.103000000000E-01	-3.384000000000E-01	1.103000000000E-01
	O23	O	-3.384000000000E-01	1.103000000000E-01	-1.103000000000E-01
	O24	O	1.103000000000E-01	-3.384000000000E-01	-1.103000000000E-01
	O25	O	-1.103000000000E-01	-1.103000000000E-01	-3.384000000000E-01
	O26	O	1.103000000000E-01	1.103000000000E-01	-3.384000000000E-01
	O27	O	1.103000000000E-01	-1.103000000000E-01	3.384000000000E-01
	O28	O	-1.103000000000E-01	1.103000000000E-01	3.384000000000E-01
	O29	O	-1.103000000000E-01	-3.384000000000E-01	-1.103000000000E-01
	O30	O	-3.384000000000E-01	-1.103000000000E-01	-1.103000000000E-01
	O31	O	1.103000000000E-01	3.384000000000E-01	-1.103000000000E-01
	O32	O	-3.384000000000E-01	1.103000000000E-01	1.103000000000E-01
	O33	O	1.103000000000E-01	-3.384000000000E-01	1.103000000000E-01
	O34	O	3.384000000000E-01	1.103000000000E-01	-1.103000000000E-01
	O35	O	-1.103000000000E-01	3.384000000000E-01	1.103000000000E-01
	O36	O	3.384000000000E-01	-1.103000000000E-01	1.103000000000E-01
	O37	O	0.000000000000E+00	2.967000000000E-01	2.967000000000E-01
	O38	O	0.000000000000E+00	-2.967000000000E-01	2.967000000000E-01
	O39	O	0.000000000000E+00	-2.967000000000E-01	-2.967000000000E-01
	O40	O	0.000000000000E+00	2.967000000000E-01	-2.967000000000E-01
	O41	O	2.967000000000E-01	0.000000000000E+00	2.967000000000E-01
	O42	O	2.967000000000E-01	2.967000000000E-01	0.000000000000E+00
	O43	O	-2.967000000000E-01	0.000000000000E+00	2.967000000000E-01
	O44	O	-2.967000000000E-01	2.967000000000E-01	0.000000000000E+00
	O45	O	2.967000000000E-01	0.000000000000E+00	-2.967000000000E-01
	O46	O	-2.967000000000E-01	-2.967000000000E-01	0.000000000000E+00
	O47	O	-2.967000000000E-01	0.000000000000E+00	-2.967000000000E-01
	O48	O	2.967000000000E-01	-2.967000000000E-01	0.000000000000E+00
	Si49	Si	0.000000000000E+00	1.823000000000E-01	3.684000000000E-01
	Si50	Si	0.000000000000E+00	-1.823000000000E-01	3.684000000000E-01
	Si51	Si	0.000000000000E+00	-1.823000000000E-01	-3.684000000000E-01
	Si52	Si	0.000000000000E+00	1.823000000000E-01	-3.684000000000E-01
	Si53	Si	3.684000000000E-01	0.000000000000E+00	1.823000000000E-01
	Si54	Si	1.823000000000E-01	3.684000000000E-01	0.000000000000E+00
	Si55	Si	-3.684000000000E-01	0.000000000000E+00	1.823000000000E-01
	Si56	Si	-1.823000000000E-01	3.684000000000E-01	0.000000000000E+00
	Si57	Si	3.684000000000E-01	0.000000000000E+00	-1.823000000000E-01
	Si58	Si	-1.823000000000E-01	-3.684000000000E-01	0.000000000000E+00
	Si59	Si	-3.684000000000E-01	0.000000000000E+00	-1.823000000000E-01
	Si60	Si	1.823000000000E-01	-3.684000000000E-01	0.000000000000E+00
	Si61	Si	-1.823000000000E-01	0.000000000000E+00	-3.684000000000E-01
	Si62	Si	1.823000000000E-01	0.000000000000E+00	-3.684000000000E-01
	Si63	Si	1.823000000000E-01	0.000000000000E+00	3.684000000000E-01
	Si64	Si	-1.823000000000E-01	0.000000000000E+00	3.684000000000E-01
	Si65	Si	0.000000000000E+00	-3.684000000000E-01	-1.823000000000E-01
	Si66	Si	-3.684000000000E-01	-1.823000000000E-01	0.000000000000E+00
	Si67	Si	0.000000000000E+00	3.684000000000E-01	-1.823000000000E-01
	Si68	Si	-3.684000000000E-01	1.823000000000E-01	0.000000000000E+00
	Si69	Si	0.000000000000E+00	-3.684000000000E-01	1.823000000000E-01
	Si70	Si	3.684000000000E-01	1.823000000000E-01	0.000000000000E+00
	Si71	Si	0.000000000000E+00	3.684000000000E-01	1.823000000000E-01
	Si72	Si	3.684000000000E-01	-1.823000000000E-01	0.000000000000E+00
