data LTL
_chemical_name_common		'LTL'
_cell_length_a		18.12600000
_cell_length_b		18.12600000
_cell_length_c		7.56700000
_cell_angle_alpha		90.000000
_cell_angle_beta		90.000000
_cell_angle_gamma		120.000000
_space group_name_H-M_alt		'P 1'
_space_group_IT_number		1

loop_
	_atom_site_label
	_atom_site_type_symbol
	_atom_site_fract_x
	_atom_site_fract_y
	_atom_site_fract_z
	O1	O	2.644500000000E-01	-4.711000000000E-01	2.231000000000E-01
	O2	O	-2.644500000000E-01	4.711000000000E-01	2.231000000000E-01
	O3	O	4.711000000000E-01	-2.644500000000E-01	2.231000000000E-01
	O4	O	2.644500000000E-01	-2.644500000000E-01	2.231000000000E-01
	O5	O	-2.644500000000E-01	2.644500000000E-01	2.231000000000E-01
	O6	O	-4.711000000000E-01	2.644500000000E-01	2.231000000000E-01
	O7	O	-2.644500000000E-01	4.711000000000E-01	-2.231000000000E-01
	O8	O	-2.644500000000E-01	2.644500000000E-01	-2.231000000000E-01
	O9	O	-4.711000000000E-01	2.644500000000E-01	-2.231000000000E-01
	O10	O	4.711000000000E-01	-2.644500000000E-01	-2.231000000000E-01
	O11	O	2.644500000000E-01	-2.644500000000E-01	-2.231000000000E-01
	O12	O	2.644500000000E-01	-4.711000000000E-01	-2.231000000000E-01
	O13	O	1.099000000000E-01	4.162000000000E-01	3.263000000000E-01
	O14	O	-1.099000000000E-01	-4.162000000000E-01	3.263000000000E-01
	O15	O	-4.162000000000E-01	-3.063000000000E-01	3.263000000000E-01
	O16	O	3.063000000000E-01	-1.099000000000E-01	3.263000000000E-01
	O17	O	-3.063000000000E-01	1.099000000000E-01	3.263000000000E-01
	O18	O	4.162000000000E-01	3.063000000000E-01	3.263000000000E-01
	O19	O	-3.063000000000E-01	-4.162000000000E-01	-3.263000000000E-01
	O20	O	-1.099000000000E-01	3.063000000000E-01	-3.263000000000E-01
	O21	O	4.162000000000E-01	1.099000000000E-01	-3.263000000000E-01
	O22	O	-4.162000000000E-01	-1.099000000000E-01	-3.263000000000E-01
	O23	O	1.099000000000E-01	-3.063000000000E-01	-3.263000000000E-01
	O24	O	3.063000000000E-01	4.162000000000E-01	-3.263000000000E-01
	O25	O	-1.099000000000E-01	-4.162000000000E-01	-3.263000000000E-01
	O26	O	1.099000000000E-01	4.162000000000E-01	-3.263000000000E-01
	O27	O	4.162000000000E-01	3.063000000000E-01	-3.263000000000E-01
	O28	O	-3.063000000000E-01	1.099000000000E-01	-3.263000000000E-01
	O29	O	3.063000000000E-01	-1.099000000000E-01	-3.263000000000E-01
	O30	O	-4.162000000000E-01	-3.063000000000E-01	-3.263000000000E-01
	O31	O	3.063000000000E-01	4.162000000000E-01	3.263000000000E-01
	O32	O	1.099000000000E-01	-3.063000000000E-01	3.263000000000E-01
	O33	O	-4.162000000000E-01	-1.099000000000E-01	3.263000000000E-01
	O34	O	4.162000000000E-01	1.099000000000E-01	3.263000000000E-01
	O35	O	-1.099000000000E-01	3.063000000000E-01	3.263000000000E-01
	O36	O	-3.063000000000E-01	-4.162000000000E-01	3.263000000000E-01
	O37	O	4.258000000000E-01	-1.484000000000E-01	2.620000000000E-01
	O38	O	-4.258000000000E-01	1.484000000000E-01	2.620000000000E-01
	O39	O	1.484000000000E-01	-4.258000000000E-01	2.620000000000E-01
	O40	O	4.258000000000E-01	-4.258000000000E-01	2.620000000000E-01
	O41	O	-4.258000000000E-01	4.258000000000E-01	2.620000000000E-01
	O42	O	-1.484000000000E-01	4.258000000000E-01	2.620000000000E-01
	O43	O	-4.258000000000E-01	1.484000000000E-01	-2.620000000000E-01
	O44	O	-4.258000000000E-01	4.258000000000E-01	-2.620000000000E-01
	O45	O	-1.484000000000E-01	4.258000000000E-01	-2.620000000000E-01
	O46	O	1.484000000000E-01	-4.258000000000E-01	-2.620000000000E-01
	O47	O	4.258000000000E-01	-4.258000000000E-01	-2.620000000000E-01
	O48	O	4.258000000000E-01	-1.484000000000E-01	-2.620000000000E-01
	O49	O	1.365000000000E-01	4.736000000000E-01	0.000000000000E+00
	O50	O	-1.365000000000E-01	-4.736000000000E-01	0.000000000000E+00
	O51	O	-4.736000000000E-01	-3.371000000000E-01	0.000000000000E+00
	O52	O	3.371000000000E-01	-1.365000000000E-01	0.000000000000E+00
	O53	O	-3.371000000000E-01	1.365000000000E-01	0.000000000000E+00
	O54	O	4.736000000000E-01	3.371000000000E-01	0.000000000000E+00
	O55	O	-3.371000000000E-01	-4.736000000000E-01	0.000000000000E+00
	O56	O	-1.365000000000E-01	3.371000000000E-01	0.000000000000E+00
	O57	O	4.736000000000E-01	1.365000000000E-01	0.000000000000E+00
	O58	O	-4.736000000000E-01	-1.365000000000E-01	0.000000000000E+00
	O59	O	1.365000000000E-01	-3.371000000000E-01	0.000000000000E+00
	O60	O	3.371000000000E-01	4.736000000000E-01	0.000000000000E+00
	O61	O	2.797000000000E-01	5.551115123126E-17	-5.000000000000E-01
	O62	O	-2.797000000000E-01	-8.326672684689E-17	-5.000000000000E-01
	O63	O	-2.829030396680E-17	2.797000000000E-01	-5.000000000000E-01
	O64	O	-2.797000000000E-01	-2.797000000000E-01	-5.000000000000E-01
	O65	O	2.797000000000E-01	2.797000000000E-01	-5.000000000000E-01
	O66	O	2.829030396680E-17	-2.797000000000E-01	-5.000000000000E-01
	O67	O	1.628000000000E-01	3.256000000000E-01	-5.000000000000E-01
	O68	O	-1.628000000000E-01	-3.256000000000E-01	-5.000000000000E-01
	O69	O	-3.256000000000E-01	-1.628000000000E-01	-5.000000000000E-01
	O70	O	1.628000000000E-01	-1.628000000000E-01	-5.000000000000E-01
	O71	O	-1.628000000000E-01	1.628000000000E-01	-5.000000000000E-01
	O72	O	3.256000000000E-01	1.628000000000E-01	-5.000000000000E-01
	Si73	Si	1.648000000000E-01	4.982000000000E-01	2.030000000000E-01
	Si74	Si	-1.648000000000E-01	-4.982000000000E-01	2.030000000000E-01
	Si75	Si	-4.982000000000E-01	-3.334000000000E-01	2.030000000000E-01
	Si76	Si	3.334000000000E-01	-1.648000000000E-01	2.030000000000E-01
	Si77	Si	-3.334000000000E-01	1.648000000000E-01	2.030000000000E-01
	Si78	Si	4.982000000000E-01	3.334000000000E-01	2.030000000000E-01
	Si79	Si	-3.334000000000E-01	-4.982000000000E-01	-2.030000000000E-01
	Si80	Si	-1.648000000000E-01	3.334000000000E-01	-2.030000000000E-01
	Si81	Si	4.982000000000E-01	1.648000000000E-01	-2.030000000000E-01
	Si82	Si	-4.982000000000E-01	-1.648000000000E-01	-2.030000000000E-01
	Si83	Si	1.648000000000E-01	-3.334000000000E-01	-2.030000000000E-01
	Si84	Si	3.334000000000E-01	4.982000000000E-01	-2.030000000000E-01
	Si85	Si	-1.648000000000E-01	-4.982000000000E-01	-2.030000000000E-01
	Si86	Si	1.648000000000E-01	4.982000000000E-01	-2.030000000000E-01
	Si87	Si	4.982000000000E-01	3.334000000000E-01	-2.030000000000E-01
	Si88	Si	-3.334000000000E-01	1.648000000000E-01	-2.030000000000E-01
	Si89	Si	3.334000000000E-01	-1.648000000000E-01	-2.030000000000E-01
	Si90	Si	-4.982000000000E-01	-3.334000000000E-01	-2.030000000000E-01
	Si91	Si	3.334000000000E-01	4.982000000000E-01	2.030000000000E-01
	Si92	Si	1.648000000000E-01	-3.334000000000E-01	2.030000000000E-01
	Si93	Si	-4.982000000000E-01	-1.648000000000E-01	2.030000000000E-01
	Si94	Si	4.982000000000E-01	1.648000000000E-01	2.030000000000E-01
	Si95	Si	-1.648000000000E-01	3.334000000000E-01	2.030000000000E-01
	Si96	Si	-3.334000000000E-01	-4.982000000000E-01	2.030000000000E-01
	Si97	Si	9.590000000000E-02	3.594000000000E-01	-5.000000000000E-01
	Si98	Si	-9.590000000000E-02	-3.594000000000E-01	-5.000000000000E-01
	Si99	Si	-3.594000000000E-01	-2.635000000000E-01	-5.000000000000E-01
	Si100	Si	2.635000000000E-01	-9.590000000000E-02	-5.000000000000E-01
	Si101	Si	-2.635000000000E-01	9.590000000000E-02	-5.000000000000E-01
	Si102	Si	3.594000000000E-01	2.635000000000E-01	-5.000000000000E-01
	Si103	Si	-2.635000000000E-01	-3.594000000000E-01	-5.000000000000E-01
	Si104	Si	-9.590000000000E-02	2.635000000000E-01	-5.000000000000E-01
	Si105	Si	3.594000000000E-01	9.590000000000E-02	-5.000000000000E-01
	Si106	Si	-3.594000000000E-01	-9.590000000000E-02	-5.000000000000E-01
	Si107	Si	9.590000000000E-02	-2.635000000000E-01	-5.000000000000E-01
	Si108	Si	2.635000000000E-01	3.594000000000E-01	-5.000000000000E-01
