data MAZ
_chemical_name_common		'MAZ'
_cell_length_a		18.10200000
_cell_length_b		18.10200000
_cell_length_c		7.61800000
_cell_angle_alpha		90.000000
_cell_angle_beta		90.000000
_cell_angle_gamma		120.000000
_space group_name_H-M_alt		'P 1'
_space_group_IT_number		1

loop_
	_atom_site_label
	_atom_site_type_symbol
	_atom_site_fract_x
	_atom_site_fract_y
	_atom_site_fract_z
	O1	O	2.801000000000E-01	-8.326672684689E-17	0.000000000000E+00
	O2	O	-2.801000000000E-01	8.326672684689E-17	-5.000000000000E-01
	O3	O	5.665562365510E-17	2.801000000000E-01	0.000000000000E+00
	O4	O	-2.801000000000E-01	-2.801000000000E-01	0.000000000000E+00
	O5	O	2.801000000000E-01	2.801000000000E-01	-5.000000000000E-01
	O6	O	-5.665562365510E-17	-2.801000000000E-01	-5.000000000000E-01
	O7	O	-2.801000000000E-01	8.326672684689E-17	0.000000000000E+00
	O8	O	2.801000000000E-01	-8.326672684689E-17	-5.000000000000E-01
	O9	O	-5.665562365510E-17	-2.801000000000E-01	0.000000000000E+00
	O10	O	2.801000000000E-01	2.801000000000E-01	0.000000000000E+00
	O11	O	-2.801000000000E-01	-2.801000000000E-01	-5.000000000000E-01
	O12	O	5.665562365510E-17	2.801000000000E-01	-5.000000000000E-01
	O13	O	1.193000000000E-01	4.365000000000E-01	-7.750000000000E-02
	O14	O	-1.193000000000E-01	-4.365000000000E-01	4.225000000000E-01
	O15	O	-4.365000000000E-01	-3.172000000000E-01	-7.750000000000E-02
	O16	O	3.172000000000E-01	-1.193000000000E-01	-7.750000000000E-02
	O17	O	-3.172000000000E-01	1.193000000000E-01	4.225000000000E-01
	O18	O	4.365000000000E-01	3.172000000000E-01	4.225000000000E-01
	O19	O	-3.172000000000E-01	-4.365000000000E-01	7.750000000000E-02
	O20	O	-1.193000000000E-01	3.172000000000E-01	7.750000000000E-02
	O21	O	4.365000000000E-01	1.193000000000E-01	7.750000000000E-02
	O22	O	-4.365000000000E-01	-1.193000000000E-01	-4.225000000000E-01
	O23	O	1.193000000000E-01	-3.172000000000E-01	-4.225000000000E-01
	O24	O	3.172000000000E-01	4.365000000000E-01	-4.225000000000E-01
	O25	O	-1.193000000000E-01	-4.365000000000E-01	7.750000000000E-02
	O26	O	1.193000000000E-01	4.365000000000E-01	-4.225000000000E-01
	O27	O	4.365000000000E-01	3.172000000000E-01	7.750000000000E-02
	O28	O	-3.172000000000E-01	1.193000000000E-01	7.750000000000E-02
	O29	O	3.172000000000E-01	-1.193000000000E-01	-4.225000000000E-01
	O30	O	-4.365000000000E-01	-3.172000000000E-01	-4.225000000000E-01
	O31	O	3.172000000000E-01	4.365000000000E-01	-7.750000000000E-02
	O32	O	1.193000000000E-01	-3.172000000000E-01	-7.750000000000E-02
	O33	O	-4.365000000000E-01	-1.193000000000E-01	-7.750000000000E-02
	O34	O	4.365000000000E-01	1.193000000000E-01	4.225000000000E-01
	O35	O	-1.193000000000E-01	3.172000000000E-01	4.225000000000E-01
	O36	O	-3.172000000000E-01	-4.365000000000E-01	4.225000000000E-01
	O37	O	1.619500000000E-01	3.239000000000E-01	2.270000000000E-02
	O38	O	-1.619500000000E-01	-3.239000000000E-01	-4.773000000000E-01
	O39	O	-3.239000000000E-01	-1.619500000000E-01	2.270000000000E-02
	O40	O	1.619500000000E-01	-1.619500000000E-01	2.270000000000E-02
	O41	O	-1.619500000000E-01	1.619500000000E-01	-4.773000000000E-01
	O42	O	3.239000000000E-01	1.619500000000E-01	-4.773000000000E-01
	O43	O	-1.619500000000E-01	-3.239000000000E-01	-2.270000000000E-02
	O44	O	-1.619500000000E-01	1.619500000000E-01	-2.270000000000E-02
	O45	O	3.239000000000E-01	1.619500000000E-01	-2.270000000000E-02
	O46	O	-3.239000000000E-01	-1.619500000000E-01	4.773000000000E-01
	O47	O	1.619500000000E-01	-1.619500000000E-01	4.773000000000E-01
	O48	O	1.619500000000E-01	3.239000000000E-01	4.773000000000E-01
	O49	O	9.590000000000E-02	3.839000000000E-01	2.500000000000E-01
	O50	O	-9.590000000000E-02	-3.839000000000E-01	-2.500000000000E-01
	O51	O	-3.839000000000E-01	-2.880000000000E-01	2.500000000000E-01
	O52	O	2.880000000000E-01	-9.590000000000E-02	2.500000000000E-01
	O53	O	-2.880000000000E-01	9.590000000000E-02	-2.500000000000E-01
	O54	O	3.839000000000E-01	2.880000000000E-01	-2.500000000000E-01
	O55	O	-2.880000000000E-01	-3.839000000000E-01	-2.500000000000E-01
	O56	O	-9.590000000000E-02	2.880000000000E-01	-2.500000000000E-01
	O57	O	3.839000000000E-01	9.590000000000E-02	-2.500000000000E-01
	O58	O	-3.839000000000E-01	-9.590000000000E-02	2.500000000000E-01
	O59	O	9.590000000000E-02	-2.880000000000E-01	2.500000000000E-01
	O60	O	2.880000000000E-01	3.839000000000E-01	2.500000000000E-01
	O61	O	-2.631500000000E-01	4.737000000000E-01	2.500000000000E-01
	O62	O	2.631500000000E-01	-4.737000000000E-01	-2.500000000000E-01
	O63	O	-4.737000000000E-01	2.631500000000E-01	2.500000000000E-01
	O64	O	-2.631500000000E-01	2.631500000000E-01	2.500000000000E-01
	O65	O	2.631500000000E-01	-2.631500000000E-01	-2.500000000000E-01
	O66	O	4.737000000000E-01	-2.631500000000E-01	-2.500000000000E-01
	O67	O	-4.263500000000E-01	1.473000000000E-01	2.500000000000E-01
	O68	O	4.263500000000E-01	-1.473000000000E-01	-2.500000000000E-01
	O69	O	-1.473000000000E-01	4.263500000000E-01	2.500000000000E-01
	O70	O	-4.263500000000E-01	4.263500000000E-01	2.500000000000E-01
	O71	O	4.263500000000E-01	-4.263500000000E-01	-2.500000000000E-01
	O72	O	1.473000000000E-01	-4.263500000000E-01	-2.500000000000E-01
	Si73	Si	9.430000000000E-02	3.561000000000E-01	4.870000000000E-02
	Si74	Si	-9.430000000000E-02	-3.561000000000E-01	-4.513000000000E-01
	Si75	Si	-3.561000000000E-01	-2.618000000000E-01	4.870000000000E-02
	Si76	Si	2.618000000000E-01	-9.430000000000E-02	4.870000000000E-02
	Si77	Si	-2.618000000000E-01	9.430000000000E-02	-4.513000000000E-01
	Si78	Si	3.561000000000E-01	2.618000000000E-01	-4.513000000000E-01
	Si79	Si	-2.618000000000E-01	-3.561000000000E-01	-4.870000000000E-02
	Si80	Si	-9.430000000000E-02	2.618000000000E-01	-4.870000000000E-02
	Si81	Si	3.561000000000E-01	9.430000000000E-02	-4.870000000000E-02
	Si82	Si	-3.561000000000E-01	-9.430000000000E-02	4.513000000000E-01
	Si83	Si	9.430000000000E-02	-2.618000000000E-01	4.513000000000E-01
	Si84	Si	2.618000000000E-01	3.561000000000E-01	4.513000000000E-01
	Si85	Si	-9.430000000000E-02	-3.561000000000E-01	-4.870000000000E-02
	Si86	Si	9.430000000000E-02	3.561000000000E-01	4.513000000000E-01
	Si87	Si	3.561000000000E-01	2.618000000000E-01	-4.870000000000E-02
	Si88	Si	-2.618000000000E-01	9.430000000000E-02	-4.870000000000E-02
	Si89	Si	2.618000000000E-01	-9.430000000000E-02	4.513000000000E-01
	Si90	Si	-3.561000000000E-01	-2.618000000000E-01	4.513000000000E-01
	Si91	Si	2.618000000000E-01	3.561000000000E-01	4.870000000000E-02
	Si92	Si	9.430000000000E-02	-2.618000000000E-01	4.870000000000E-02
	Si93	Si	-3.561000000000E-01	-9.430000000000E-02	4.870000000000E-02
	Si94	Si	3.561000000000E-01	9.430000000000E-02	-4.513000000000E-01
	Si95	Si	-9.430000000000E-02	2.618000000000E-01	-4.513000000000E-01
	Si96	Si	-2.618000000000E-01	-3.561000000000E-01	-4.513000000000E-01
	Si97	Si	4.934000000000E-01	1.624000000000E-01	2.500000000000E-01
	Si98	Si	-4.934000000000E-01	-1.624000000000E-01	-2.500000000000E-01
	Si99	Si	-1.624000000000E-01	3.310000000000E-01	2.500000000000E-01
	Si100	Si	-3.310000000000E-01	-4.934000000000E-01	2.500000000000E-01
	Si101	Si	3.310000000000E-01	4.934000000000E-01	-2.500000000000E-01
	Si102	Si	1.624000000000E-01	-3.310000000000E-01	-2.500000000000E-01
	Si103	Si	3.310000000000E-01	-1.624000000000E-01	-2.500000000000E-01
	Si104	Si	-4.934000000000E-01	-3.310000000000E-01	-2.500000000000E-01
	Si105	Si	1.624000000000E-01	4.934000000000E-01	-2.500000000000E-01
	Si106	Si	-1.624000000000E-01	-4.934000000000E-01	2.500000000000E-01
	Si107	Si	4.934000000000E-01	3.310000000000E-01	2.500000000000E-01
	Si108	Si	-3.310000000000E-01	1.624000000000E-01	2.500000000000E-01
