data MEI
_chemical_name_common		'MEI'
_cell_length_a		13.11400000
_cell_length_b		13.11400000
_cell_length_c		15.56300000
_cell_angle_alpha		90.000000
_cell_angle_beta		90.000000
_cell_angle_gamma		120.000000
_space group_name_H-M_alt		'P 1'
_space_group_IT_number		1

loop_
	_atom_site_label
	_atom_site_type_symbol
	_atom_site_fract_x
	_atom_site_fract_y
	_atom_site_fract_z
	O1	O	-1.970000000000E-01	2.269000000000E-01	3.900000000000E-03
	O2	O	1.970000000000E-01	-2.269000000000E-01	-4.961000000000E-01
	O3	O	-2.269000000000E-01	-4.239000000000E-01	3.900000000000E-03
	O4	O	4.239000000000E-01	1.970000000000E-01	3.900000000000E-03
	O5	O	-4.239000000000E-01	-1.970000000000E-01	-4.961000000000E-01
	O6	O	2.269000000000E-01	4.239000000000E-01	-4.961000000000E-01
	O7	O	1.970000000000E-01	-2.269000000000E-01	-3.900000000000E-03
	O8	O	-1.970000000000E-01	2.269000000000E-01	4.961000000000E-01
	O9	O	2.269000000000E-01	4.239000000000E-01	-3.900000000000E-03
	O10	O	-4.239000000000E-01	-1.970000000000E-01	-3.900000000000E-03
	O11	O	4.239000000000E-01	1.970000000000E-01	4.961000000000E-01
	O12	O	-2.269000000000E-01	-4.239000000000E-01	4.961000000000E-01
	O13	O	-3.504000000000E-01	2.101000000000E-01	-1.119000000000E-01
	O14	O	3.504000000000E-01	-2.101000000000E-01	3.881000000000E-01
	O15	O	-2.101000000000E-01	4.395000000000E-01	-1.119000000000E-01
	O16	O	-4.395000000000E-01	3.504000000000E-01	-1.119000000000E-01
	O17	O	4.395000000000E-01	-3.504000000000E-01	3.881000000000E-01
	O18	O	2.101000000000E-01	-4.395000000000E-01	3.881000000000E-01
	O19	O	3.504000000000E-01	-2.101000000000E-01	1.119000000000E-01
	O20	O	-3.504000000000E-01	2.101000000000E-01	-3.881000000000E-01
	O21	O	2.101000000000E-01	-4.395000000000E-01	1.119000000000E-01
	O22	O	4.395000000000E-01	-3.504000000000E-01	1.119000000000E-01
	O23	O	-4.395000000000E-01	3.504000000000E-01	-3.881000000000E-01
	O24	O	-2.101000000000E-01	4.395000000000E-01	-3.881000000000E-01
	O25	O	-3.539000000000E-01	1.920000000000E-02	-5.560000000000E-02
	O26	O	3.539000000000E-01	-1.920000000000E-02	4.444000000000E-01
	O27	O	-1.920000000000E-02	-3.731000000000E-01	-5.560000000000E-02
	O28	O	3.731000000000E-01	3.539000000000E-01	-5.560000000000E-02
	O29	O	-3.731000000000E-01	-3.539000000000E-01	4.444000000000E-01
	O30	O	1.920000000000E-02	3.731000000000E-01	4.444000000000E-01
	O31	O	3.539000000000E-01	-1.920000000000E-02	5.560000000000E-02
	O32	O	-3.539000000000E-01	1.920000000000E-02	-4.444000000000E-01
	O33	O	1.920000000000E-02	3.731000000000E-01	5.560000000000E-02
	O34	O	-3.731000000000E-01	-3.539000000000E-01	5.560000000000E-02
	O35	O	3.731000000000E-01	3.539000000000E-01	-4.444000000000E-01
	O36	O	-1.920000000000E-02	-3.731000000000E-01	-4.444000000000E-01
	O37	O	-4.200000000000E-01	1.358000000000E-01	4.580000000000E-02
	O38	O	4.200000000000E-01	-1.358000000000E-01	-4.542000000000E-01
	O39	O	-1.358000000000E-01	4.442000000000E-01	4.580000000000E-02
	O40	O	-4.442000000000E-01	4.200000000000E-01	4.580000000000E-02
	O41	O	4.442000000000E-01	-4.200000000000E-01	-4.542000000000E-01
	O42	O	1.358000000000E-01	-4.442000000000E-01	-4.542000000000E-01
	O43	O	4.200000000000E-01	-1.358000000000E-01	-4.580000000000E-02
	O44	O	-4.200000000000E-01	1.358000000000E-01	4.542000000000E-01
	O45	O	1.358000000000E-01	-4.442000000000E-01	-4.580000000000E-02
	O46	O	4.442000000000E-01	-4.200000000000E-01	-4.580000000000E-02
	O47	O	-4.442000000000E-01	4.200000000000E-01	4.542000000000E-01
	O48	O	-1.358000000000E-01	4.442000000000E-01	4.542000000000E-01
	O49	O	4.498000000000E-01	1.563000000000E-01	1.655000000000E-01
	O50	O	-4.498000000000E-01	-1.563000000000E-01	-3.345000000000E-01
	O51	O	-1.563000000000E-01	2.935000000000E-01	1.655000000000E-01
	O52	O	-2.935000000000E-01	-4.498000000000E-01	1.655000000000E-01
	O53	O	2.935000000000E-01	4.498000000000E-01	-3.345000000000E-01
	O54	O	1.563000000000E-01	-2.935000000000E-01	-3.345000000000E-01
	O55	O	-4.498000000000E-01	-1.563000000000E-01	-1.655000000000E-01
	O56	O	4.498000000000E-01	1.563000000000E-01	3.345000000000E-01
	O57	O	1.563000000000E-01	-2.935000000000E-01	-1.655000000000E-01
	O58	O	2.935000000000E-01	4.498000000000E-01	-1.655000000000E-01
	O59	O	-2.935000000000E-01	-4.498000000000E-01	3.345000000000E-01
	O60	O	-1.563000000000E-01	2.935000000000E-01	3.345000000000E-01
	O61	O	-4.355000000000E-01	3.563000000000E-01	2.500000000000E-01
	O62	O	4.355000000000E-01	-3.563000000000E-01	-2.500000000000E-01
	O63	O	-3.563000000000E-01	2.082000000000E-01	2.500000000000E-01
	O64	O	-2.082000000000E-01	4.355000000000E-01	2.500000000000E-01
	O65	O	2.082000000000E-01	-4.355000000000E-01	-2.500000000000E-01
	O66	O	3.563000000000E-01	-2.082000000000E-01	-2.500000000000E-01
	O67	O	3.333333333333E-01	-3.333333333333E-01	2.500000000000E-01
	O68	O	-3.333333333333E-01	3.333333333333E-01	-2.500000000000E-01
	Si69	Si	-3.304000000000E-01	1.479000000000E-01	-2.950000000000E-02
	Si70	Si	3.304000000000E-01	-1.479000000000E-01	4.705000000000E-01
	Si71	Si	-1.479000000000E-01	-4.783000000000E-01	-2.950000000000E-02
	Si72	Si	4.783000000000E-01	3.304000000000E-01	-2.950000000000E-02
	Si73	Si	-4.783000000000E-01	-3.304000000000E-01	4.705000000000E-01
	Si74	Si	1.479000000000E-01	4.783000000000E-01	4.705000000000E-01
	Si75	Si	3.304000000000E-01	-1.479000000000E-01	2.950000000000E-02
	Si76	Si	-3.304000000000E-01	1.479000000000E-01	-4.705000000000E-01
	Si77	Si	1.479000000000E-01	4.783000000000E-01	2.950000000000E-02
	Si78	Si	-4.783000000000E-01	-3.304000000000E-01	2.950000000000E-02
	Si79	Si	4.783000000000E-01	3.304000000000E-01	-4.705000000000E-01
	Si80	Si	-1.479000000000E-01	-4.783000000000E-01	-4.705000000000E-01
	Si81	Si	4.519000000000E-01	1.174000000000E-01	6.770000000000E-02
	Si82	Si	-4.519000000000E-01	-1.174000000000E-01	-4.323000000000E-01
	Si83	Si	-1.174000000000E-01	3.345000000000E-01	6.770000000000E-02
	Si84	Si	-3.345000000000E-01	-4.519000000000E-01	6.770000000000E-02
	Si85	Si	3.345000000000E-01	4.519000000000E-01	-4.323000000000E-01
	Si86	Si	1.174000000000E-01	-3.345000000000E-01	-4.323000000000E-01
	Si87	Si	-4.519000000000E-01	-1.174000000000E-01	-6.770000000000E-02
	Si88	Si	4.519000000000E-01	1.174000000000E-01	4.323000000000E-01
	Si89	Si	1.174000000000E-01	-3.345000000000E-01	-6.770000000000E-02
	Si90	Si	3.345000000000E-01	4.519000000000E-01	-6.770000000000E-02
	Si91	Si	-3.345000000000E-01	-4.519000000000E-01	4.323000000000E-01
	Si92	Si	-1.174000000000E-01	3.345000000000E-01	4.323000000000E-01
	Si93	Si	-4.735000000000E-01	2.189000000000E-01	2.500000000000E-01
	Si94	Si	4.735000000000E-01	-2.189000000000E-01	-2.500000000000E-01
	Si95	Si	-2.189000000000E-01	3.076000000000E-01	2.500000000000E-01
	Si96	Si	-3.076000000000E-01	4.735000000000E-01	2.500000000000E-01
	Si97	Si	3.076000000000E-01	-4.735000000000E-01	-2.500000000000E-01
	Si98	Si	2.189000000000E-01	-3.076000000000E-01	-2.500000000000E-01
	Si99	Si	3.333333333333E-01	-3.333333333333E-01	3.533000000000E-01
	Si100	Si	-3.333333333333E-01	3.333333333333E-01	-1.467000000000E-01
	Si101	Si	-3.333333333333E-01	3.333333333333E-01	-3.533000000000E-01
	Si102	Si	3.333333333333E-01	-3.333333333333E-01	1.467000000000E-01
