data MEL
_chemical_name_common		'MEL'
_cell_length_a		15.83422307
_cell_length_b		15.83422307
_cell_length_c		15.83422307
_cell_angle_alpha		100.406026
_cell_angle_beta		100.406026
_cell_angle_gamma		129.699031
_space group_name_H-M_alt		'P 1'
_space_group_IT_number		1

loop_
	_atom_site_label
	_atom_site_type_symbol
	_atom_site_fract_x
	_atom_site_fract_y
	_atom_site_fract_z
	O1	O	2.155000000000E-01	1.885000000000E-01	2.170000000000E-01
	O2	O	-2.850000000000E-02	-1.500000000000E-03	-2.170000000000E-01
	O3	O	-1.885000000000E-01	-2.155000000000E-01	-2.170000000000E-01
	O4	O	1.500000000000E-03	2.850000000000E-02	2.170000000000E-01
	O5	O	2.155000000000E-01	-1.500000000000E-03	2.700000000000E-02
	O6	O	-2.850000000000E-02	1.885000000000E-01	-2.700000000000E-02
	O7	O	1.500000000000E-03	-2.155000000000E-01	-2.700000000000E-02
	O8	O	-1.885000000000E-01	2.850000000000E-02	2.700000000000E-02
	O9	O	3.478000000000E-01	1.938000000000E-01	3.492000000000E-01
	O10	O	-1.554000000000E-01	-1.400000000000E-03	-3.492000000000E-01
	O11	O	-1.938000000000E-01	-3.478000000000E-01	-3.492000000000E-01
	O12	O	1.400000000000E-03	1.554000000000E-01	3.492000000000E-01
	O13	O	3.478000000000E-01	-1.400000000000E-03	1.540000000000E-01
	O14	O	-1.554000000000E-01	1.938000000000E-01	-1.540000000000E-01
	O15	O	1.400000000000E-03	-3.478000000000E-01	-1.540000000000E-01
	O16	O	-1.938000000000E-01	1.554000000000E-01	1.540000000000E-01
	O17	O	4.490000000000E-01	3.522000000000E-01	2.744000000000E-01
	O18	O	7.780000000000E-02	1.746000000000E-01	-2.744000000000E-01
	O19	O	-3.522000000000E-01	-4.490000000000E-01	-2.744000000000E-01
	O20	O	-1.746000000000E-01	-7.780000000000E-02	2.744000000000E-01
	O21	O	4.490000000000E-01	1.746000000000E-01	9.680000000000E-02
	O22	O	7.780000000000E-02	3.522000000000E-01	-9.680000000000E-02
	O23	O	-1.746000000000E-01	-4.490000000000E-01	-9.680000000000E-02
	O24	O	-3.522000000000E-01	-7.780000000000E-02	9.680000000000E-02
	O25	O	3.455000000000E-01	3.609000000000E-01	3.834000000000E-01
	O26	O	-2.250000000000E-02	-3.790000000000E-02	-3.834000000000E-01
	O27	O	-3.609000000000E-01	-3.455000000000E-01	-3.834000000000E-01
	O28	O	3.790000000000E-02	2.250000000000E-02	3.834000000000E-01
	O29	O	3.455000000000E-01	-3.790000000000E-02	-1.540000000000E-02
	O30	O	-2.250000000000E-02	3.609000000000E-01	1.540000000000E-02
	O31	O	3.790000000000E-02	-3.455000000000E-01	1.540000000000E-02
	O32	O	-3.609000000000E-01	2.250000000000E-02	-1.540000000000E-02
	O33	O	-3.484000000000E-01	-4.279000000000E-01	3.209000000000E-01
	O34	O	2.512000000000E-01	3.307000000000E-01	-3.209000000000E-01
	O35	O	4.279000000000E-01	3.484000000000E-01	-3.209000000000E-01
	O36	O	-3.307000000000E-01	-2.512000000000E-01	3.209000000000E-01
	O37	O	-3.484000000000E-01	3.307000000000E-01	7.950000000000E-02
	O38	O	2.512000000000E-01	-4.279000000000E-01	-7.950000000000E-02
	O39	O	-3.307000000000E-01	3.484000000000E-01	-7.950000000000E-02
	O40	O	4.279000000000E-01	-2.512000000000E-01	7.950000000000E-02
	O41	O	-3.551000000000E-01	4.388000000000E-01	4.027000000000E-01
	O42	O	3.610000000000E-02	2.422000000000E-01	-4.027000000000E-01
	O43	O	-4.388000000000E-01	3.551000000000E-01	-4.027000000000E-01
	O44	O	-2.422000000000E-01	-3.610000000000E-02	4.027000000000E-01
	O45	O	-3.551000000000E-01	2.422000000000E-01	2.061000000000E-01
	O46	O	3.610000000000E-02	4.388000000000E-01	-2.061000000000E-01
	O47	O	-2.422000000000E-01	3.551000000000E-01	-2.061000000000E-01
	O48	O	-4.388000000000E-01	-3.610000000000E-02	2.061000000000E-01
	O49	O	-3.814000000000E-01	3.919000000000E-01	2.267000000000E-01
	O50	O	1.652000000000E-01	3.919000000000E-01	-2.267000000000E-01
	O51	O	-3.919000000000E-01	3.814000000000E-01	-2.267000000000E-01
	O52	O	-3.919000000000E-01	-1.652000000000E-01	2.267000000000E-01
	O53	O	2.031000000000E-01	3.813000000000E-01	4.220000000000E-01
	O54	O	-4.070000000000E-02	-2.189000000000E-01	-4.220000000000E-01
	O55	O	-3.813000000000E-01	-2.031000000000E-01	-4.220000000000E-01
	O56	O	2.189000000000E-01	4.070000000000E-02	4.220000000000E-01
	O57	O	2.031000000000E-01	-2.189000000000E-01	-1.782000000000E-01
	O58	O	-4.070000000000E-02	3.813000000000E-01	1.782000000000E-01
	O59	O	2.189000000000E-01	-2.031000000000E-01	1.782000000000E-01
	O60	O	-3.813000000000E-01	4.070000000000E-02	-1.782000000000E-01
	O61	O	4.352000000000E-01	-4.352000000000E-01	5.000000000000E-01
	O62	O	6.480000000000E-02	-6.480000000000E-02	5.000000000000E-01
	O63	O	4.352000000000E-01	-6.480000000000E-02	-1.296000000000E-01
	O64	O	6.480000000000E-02	-4.352000000000E-01	1.296000000000E-01
	O65	O	3.363000000000E-01	3.822000000000E-01	-4.507000000000E-01
	O66	O	-1.671000000000E-01	-2.130000000000E-01	4.507000000000E-01
	O67	O	-3.822000000000E-01	-3.363000000000E-01	4.507000000000E-01
	O68	O	2.130000000000E-01	1.671000000000E-01	-4.507000000000E-01
	O69	O	3.363000000000E-01	-2.130000000000E-01	-4.590000000000E-02
	O70	O	-1.671000000000E-01	3.822000000000E-01	4.590000000000E-02
	O71	O	2.130000000000E-01	-3.363000000000E-01	4.590000000000E-02
	O72	O	-3.822000000000E-01	1.671000000000E-01	-4.590000000000E-02
	O73	O	1.450000000000E-02	3.097000000000E-01	2.952000000000E-01
	O74	O	1.450000000000E-02	-2.807000000000E-01	-2.952000000000E-01
	O75	O	-3.097000000000E-01	-1.450000000000E-02	-2.952000000000E-01
	O76	O	2.807000000000E-01	-1.450000000000E-02	2.952000000000E-01
	O77	O	2.090000000000E-02	3.148000000000E-01	4.633000000000E-01
	O78	O	-1.485000000000E-01	-4.424000000000E-01	-4.633000000000E-01
	O79	O	-3.148000000000E-01	-2.090000000000E-02	-4.633000000000E-01
	O80	O	4.424000000000E-01	1.485000000000E-01	4.633000000000E-01
	O81	O	2.090000000000E-02	-4.424000000000E-01	-2.939000000000E-01
	O82	O	-1.485000000000E-01	3.148000000000E-01	2.939000000000E-01
	O83	O	4.424000000000E-01	-2.090000000000E-02	2.939000000000E-01
	O84	O	-3.148000000000E-01	1.485000000000E-01	-2.939000000000E-01
	O85	O	-2.270000000000E-01	3.912000000000E-01	3.818000000000E-01
	O86	O	9.400000000000E-03	3.912000000000E-01	-3.818000000000E-01
	O87	O	-3.912000000000E-01	2.270000000000E-01	-3.818000000000E-01
	O88	O	-3.912000000000E-01	-9.400000000000E-03	3.818000000000E-01
	O89	O	-3.318000000000E-01	3.318000000000E-01	5.000000000000E-01
	O90	O	-1.682000000000E-01	1.682000000000E-01	5.000000000000E-01
	O91	O	-3.318000000000E-01	1.682000000000E-01	3.364000000000E-01
	O92	O	-1.682000000000E-01	3.318000000000E-01	-3.364000000000E-01
	O93	O	5.860000000000E-02	-2.900000000000E-02	8.760000000000E-02
	O94	O	-1.166000000000E-01	-2.900000000000E-02	-8.760000000000E-02
	O95	O	2.900000000000E-02	-5.860000000000E-02	-8.760000000000E-02
	O96	O	2.900000000000E-02	1.166000000000E-01	8.760000000000E-02
	Si97	Si	3.394000000000E-01	2.739000000000E-01	3.061000000000E-01
	Si98	Si	-3.220000000000E-02	3.330000000000E-02	-3.061000000000E-01
	Si99	Si	-2.739000000000E-01	-3.394000000000E-01	-3.061000000000E-01
	Si100	Si	-3.330000000000E-02	3.220000000000E-02	3.061000000000E-01
	Si101	Si	3.394000000000E-01	3.330000000000E-02	6.550000000000E-02
	Si102	Si	-3.220000000000E-02	2.739000000000E-01	-6.550000000000E-02
	Si103	Si	-3.330000000000E-02	-3.394000000000E-01	-6.550000000000E-02
	Si104	Si	-2.739000000000E-01	3.220000000000E-02	6.550000000000E-02
	Si105	Si	-4.090000000000E-01	4.386000000000E-01	3.060000000000E-01
	Si106	Si	1.326000000000E-01	2.850000000000E-01	-3.060000000000E-01
	Si107	Si	-4.386000000000E-01	4.090000000000E-01	-3.060000000000E-01
	Si108	Si	-2.850000000000E-01	-1.326000000000E-01	3.060000000000E-01
	Si109	Si	-4.090000000000E-01	2.850000000000E-01	1.524000000000E-01
	Si110	Si	1.326000000000E-01	4.386000000000E-01	-1.524000000000E-01
	Si111	Si	-2.850000000000E-01	4.090000000000E-01	-1.524000000000E-01
	Si112	Si	-4.386000000000E-01	-1.326000000000E-01	1.524000000000E-01
	Si113	Si	3.296000000000E-01	4.218000000000E-01	4.636000000000E-01
	Si114	Si	-4.180000000000E-02	-1.340000000000E-01	-4.636000000000E-01
	Si115	Si	-4.218000000000E-01	-3.296000000000E-01	-4.636000000000E-01
	Si116	Si	1.340000000000E-01	4.180000000000E-02	4.636000000000E-01
	Si117	Si	3.296000000000E-01	-1.340000000000E-01	-9.220000000000E-02
	Si118	Si	-4.180000000000E-02	4.218000000000E-01	9.220000000000E-02
	Si119	Si	1.340000000000E-01	-3.296000000000E-01	9.220000000000E-02
	Si120	Si	-4.218000000000E-01	4.180000000000E-02	-9.220000000000E-02
	Si121	Si	6.000000000000E-02	2.903000000000E-01	3.823000000000E-01
	Si122	Si	-9.200000000000E-02	-3.223000000000E-01	-3.823000000000E-01
	Si123	Si	-2.903000000000E-01	-6.000000000000E-02	-3.823000000000E-01
	Si124	Si	3.223000000000E-01	9.200000000000E-02	3.823000000000E-01
	Si125	Si	6.000000000000E-02	-3.223000000000E-01	-2.303000000000E-01
	Si126	Si	-9.200000000000E-02	2.903000000000E-01	2.303000000000E-01
	Si127	Si	3.223000000000E-01	-6.000000000000E-02	2.303000000000E-01
	Si128	Si	-2.903000000000E-01	9.200000000000E-02	-2.303000000000E-01
	Si129	Si	-2.657000000000E-01	4.300000000000E-01	4.555000000000E-01
	Si130	Si	-2.550000000000E-02	2.788000000000E-01	-4.555000000000E-01
	Si131	Si	-4.300000000000E-01	2.657000000000E-01	-4.555000000000E-01
	Si132	Si	-2.788000000000E-01	2.550000000000E-02	4.555000000000E-01
	Si133	Si	-2.657000000000E-01	2.788000000000E-01	3.043000000000E-01
	Si134	Si	-2.550000000000E-02	4.300000000000E-01	-3.043000000000E-01
	Si135	Si	-2.788000000000E-01	2.657000000000E-01	-3.043000000000E-01
	Si136	Si	-4.300000000000E-01	2.550000000000E-02	3.043000000000E-01
	Si137	Si	7.620000000000E-02	7.620000000000E-02	1.524000000000E-01
	Si138	Si	-7.620000000000E-02	-7.620000000000E-02	-1.524000000000E-01
	Si139	Si	7.620000000000E-02	-7.620000000000E-02	2.776922454519E-17
	Si140	Si	-7.620000000000E-02	7.620000000000E-02	-2.548501780815E-17
	Si141	Si	-3.070000000000E-01	-3.070000000000E-01	3.860000000000E-01
	Si142	Si	3.070000000000E-01	3.070000000000E-01	-3.860000000000E-01
	Si143	Si	-3.070000000000E-01	3.070000000000E-01	-4.726356304307E-19
	Si144	Si	3.070000000000E-01	-3.070000000000E-01	9.609462578589E-18
