data MEP
_chemical_name_common		'MEP'
_cell_length_a		13.70500000
_cell_length_b		13.70500000
_cell_length_c		13.70500000
_cell_angle_alpha		90.000000
_cell_angle_beta		90.000000
_cell_angle_gamma		90.000000
_space group_name_H-M_alt		'P 1'
_space_group_IT_number		1

loop_
	_atom_site_label
	_atom_site_type_symbol
	_atom_site_fract_x
	_atom_site_fract_y
	_atom_site_fract_z
	O1	O	0.000000000000E+00	3.439000000000E-01	0.000000000000E+00
	O2	O	0.000000000000E+00	-3.439000000000E-01	0.000000000000E+00
	O3	O	0.000000000000E+00	0.000000000000E+00	3.439000000000E-01
	O4	O	3.439000000000E-01	0.000000000000E+00	0.000000000000E+00
	O5	O	-3.439000000000E-01	0.000000000000E+00	0.000000000000E+00
	O6	O	0.000000000000E+00	0.000000000000E+00	-3.439000000000E-01
	O7	O	1.561000000000E-01	5.000000000000E-01	5.000000000000E-01
	O8	O	-1.561000000000E-01	5.000000000000E-01	5.000000000000E-01
	O9	O	5.000000000000E-01	5.000000000000E-01	1.561000000000E-01
	O10	O	5.000000000000E-01	1.561000000000E-01	5.000000000000E-01
	O11	O	5.000000000000E-01	-1.561000000000E-01	5.000000000000E-01
	O12	O	5.000000000000E-01	5.000000000000E-01	-1.561000000000E-01
	O13	O	9.620000000000E-02	2.462000000000E-01	1.344000000000E-01
	O14	O	-9.620000000000E-02	-2.462000000000E-01	1.344000000000E-01
	O15	O	9.620000000000E-02	-2.462000000000E-01	-1.344000000000E-01
	O16	O	-9.620000000000E-02	2.462000000000E-01	-1.344000000000E-01
	O17	O	1.344000000000E-01	9.620000000000E-02	2.462000000000E-01
	O18	O	2.462000000000E-01	1.344000000000E-01	9.620000000000E-02
	O19	O	-1.344000000000E-01	-9.620000000000E-02	2.462000000000E-01
	O20	O	-2.462000000000E-01	1.344000000000E-01	-9.620000000000E-02
	O21	O	1.344000000000E-01	-9.620000000000E-02	-2.462000000000E-01
	O22	O	-2.462000000000E-01	-1.344000000000E-01	9.620000000000E-02
	O23	O	-1.344000000000E-01	9.620000000000E-02	-2.462000000000E-01
	O24	O	2.462000000000E-01	-1.344000000000E-01	-9.620000000000E-02
	O25	O	2.538000000000E-01	4.038000000000E-01	3.656000000000E-01
	O26	O	-2.538000000000E-01	-4.038000000000E-01	3.656000000000E-01
	O27	O	-2.538000000000E-01	4.038000000000E-01	-3.656000000000E-01
	O28	O	2.538000000000E-01	-4.038000000000E-01	-3.656000000000E-01
	O29	O	4.038000000000E-01	3.656000000000E-01	2.538000000000E-01
	O30	O	3.656000000000E-01	2.538000000000E-01	4.038000000000E-01
	O31	O	-4.038000000000E-01	-3.656000000000E-01	2.538000000000E-01
	O32	O	3.656000000000E-01	-2.538000000000E-01	-4.038000000000E-01
	O33	O	-4.038000000000E-01	3.656000000000E-01	-2.538000000000E-01
	O34	O	-3.656000000000E-01	-2.538000000000E-01	4.038000000000E-01
	O35	O	4.038000000000E-01	-3.656000000000E-01	-2.538000000000E-01
	O36	O	-3.656000000000E-01	2.538000000000E-01	-4.038000000000E-01
	O37	O	-9.620000000000E-02	-2.462000000000E-01	-1.344000000000E-01
	O38	O	9.620000000000E-02	2.462000000000E-01	-1.344000000000E-01
	O39	O	-9.620000000000E-02	2.462000000000E-01	1.344000000000E-01
	O40	O	9.620000000000E-02	-2.462000000000E-01	1.344000000000E-01
	O41	O	-1.344000000000E-01	-9.620000000000E-02	-2.462000000000E-01
	O42	O	-2.462000000000E-01	-1.344000000000E-01	-9.620000000000E-02
	O43	O	1.344000000000E-01	9.620000000000E-02	-2.462000000000E-01
	O44	O	2.462000000000E-01	-1.344000000000E-01	9.620000000000E-02
	O45	O	-1.344000000000E-01	9.620000000000E-02	2.462000000000E-01
	O46	O	2.462000000000E-01	1.344000000000E-01	-9.620000000000E-02
	O47	O	1.344000000000E-01	-9.620000000000E-02	2.462000000000E-01
	O48	O	-2.462000000000E-01	1.344000000000E-01	9.620000000000E-02
	O49	O	-2.538000000000E-01	-4.038000000000E-01	-3.656000000000E-01
	O50	O	2.538000000000E-01	4.038000000000E-01	-3.656000000000E-01
	O51	O	2.538000000000E-01	-4.038000000000E-01	3.656000000000E-01
	O52	O	-2.538000000000E-01	4.038000000000E-01	3.656000000000E-01
	O53	O	-4.038000000000E-01	-3.656000000000E-01	-2.538000000000E-01
	O54	O	-3.656000000000E-01	-2.538000000000E-01	-4.038000000000E-01
	O55	O	4.038000000000E-01	3.656000000000E-01	-2.538000000000E-01
	O56	O	-3.656000000000E-01	2.538000000000E-01	4.038000000000E-01
	O57	O	4.038000000000E-01	-3.656000000000E-01	2.538000000000E-01
	O58	O	3.656000000000E-01	2.538000000000E-01	-4.038000000000E-01
	O59	O	-4.038000000000E-01	3.656000000000E-01	2.538000000000E-01
	O60	O	3.656000000000E-01	-2.538000000000E-01	4.038000000000E-01
	O61	O	0.000000000000E+00	4.042000000000E-01	1.822000000000E-01
	O62	O	0.000000000000E+00	-4.042000000000E-01	1.822000000000E-01
	O63	O	0.000000000000E+00	-4.042000000000E-01	-1.822000000000E-01
	O64	O	0.000000000000E+00	4.042000000000E-01	-1.822000000000E-01
	O65	O	1.822000000000E-01	0.000000000000E+00	4.042000000000E-01
	O66	O	4.042000000000E-01	1.822000000000E-01	0.000000000000E+00
	O67	O	-1.822000000000E-01	0.000000000000E+00	4.042000000000E-01
	O68	O	-4.042000000000E-01	1.822000000000E-01	0.000000000000E+00
	O69	O	1.822000000000E-01	0.000000000000E+00	-4.042000000000E-01
	O70	O	-4.042000000000E-01	-1.822000000000E-01	0.000000000000E+00
	O71	O	-1.822000000000E-01	0.000000000000E+00	-4.042000000000E-01
	O72	O	4.042000000000E-01	-1.822000000000E-01	0.000000000000E+00
	O73	O	9.580000000000E-02	5.000000000000E-01	3.178000000000E-01
	O74	O	-9.580000000000E-02	5.000000000000E-01	3.178000000000E-01
	O75	O	-9.580000000000E-02	5.000000000000E-01	-3.178000000000E-01
	O76	O	9.580000000000E-02	5.000000000000E-01	-3.178000000000E-01
	O77	O	5.000000000000E-01	3.178000000000E-01	9.580000000000E-02
	O78	O	3.178000000000E-01	9.580000000000E-02	5.000000000000E-01
	O79	O	5.000000000000E-01	-3.178000000000E-01	9.580000000000E-02
	O80	O	3.178000000000E-01	-9.580000000000E-02	5.000000000000E-01
	O81	O	5.000000000000E-01	3.178000000000E-01	-9.580000000000E-02
	O82	O	-3.178000000000E-01	-9.580000000000E-02	5.000000000000E-01
	O83	O	5.000000000000E-01	-3.178000000000E-01	-9.580000000000E-02
	O84	O	-3.178000000000E-01	9.580000000000E-02	5.000000000000E-01
	O85	O	2.500000000000E-01	2.500000000000E-01	2.500000000000E-01
	O86	O	-2.500000000000E-01	-2.500000000000E-01	2.500000000000E-01
	O87	O	2.500000000000E-01	-2.500000000000E-01	-2.500000000000E-01
	O88	O	-2.500000000000E-01	2.500000000000E-01	-2.500000000000E-01
	O89	O	-2.500000000000E-01	-2.500000000000E-01	-2.500000000000E-01
	O90	O	2.500000000000E-01	2.500000000000E-01	-2.500000000000E-01
	O91	O	-2.500000000000E-01	2.500000000000E-01	2.500000000000E-01
	O92	O	2.500000000000E-01	-2.500000000000E-01	2.500000000000E-01
	Si93	Si	0.000000000000E+00	3.098000000000E-01	1.124000000000E-01
	Si94	Si	0.000000000000E+00	-3.098000000000E-01	1.124000000000E-01
	Si95	Si	0.000000000000E+00	-3.098000000000E-01	-1.124000000000E-01
	Si96	Si	0.000000000000E+00	3.098000000000E-01	-1.124000000000E-01
	Si97	Si	1.124000000000E-01	0.000000000000E+00	3.098000000000E-01
	Si98	Si	3.098000000000E-01	1.124000000000E-01	0.000000000000E+00
	Si99	Si	-1.124000000000E-01	0.000000000000E+00	3.098000000000E-01
	Si100	Si	-3.098000000000E-01	1.124000000000E-01	0.000000000000E+00
	Si101	Si	1.124000000000E-01	0.000000000000E+00	-3.098000000000E-01
	Si102	Si	-3.098000000000E-01	-1.124000000000E-01	0.000000000000E+00
	Si103	Si	-1.124000000000E-01	0.000000000000E+00	-3.098000000000E-01
	Si104	Si	3.098000000000E-01	-1.124000000000E-01	0.000000000000E+00
	Si105	Si	1.902000000000E-01	5.000000000000E-01	3.876000000000E-01
	Si106	Si	-1.902000000000E-01	5.000000000000E-01	3.876000000000E-01
	Si107	Si	-1.902000000000E-01	5.000000000000E-01	-3.876000000000E-01
	Si108	Si	1.902000000000E-01	5.000000000000E-01	-3.876000000000E-01
	Si109	Si	5.000000000000E-01	3.876000000000E-01	1.902000000000E-01
	Si110	Si	3.876000000000E-01	1.902000000000E-01	5.000000000000E-01
	Si111	Si	5.000000000000E-01	-3.876000000000E-01	1.902000000000E-01
	Si112	Si	3.876000000000E-01	-1.902000000000E-01	5.000000000000E-01
	Si113	Si	5.000000000000E-01	3.876000000000E-01	-1.902000000000E-01
	Si114	Si	-3.876000000000E-01	-1.902000000000E-01	5.000000000000E-01
	Si115	Si	5.000000000000E-01	-3.876000000000E-01	-1.902000000000E-01
	Si116	Si	-3.876000000000E-01	1.902000000000E-01	5.000000000000E-01
	Si117	Si	1.823000000000E-01	1.823000000000E-01	1.823000000000E-01
	Si118	Si	-1.823000000000E-01	-1.823000000000E-01	1.823000000000E-01
	Si119	Si	1.823000000000E-01	-1.823000000000E-01	-1.823000000000E-01
	Si120	Si	-1.823000000000E-01	1.823000000000E-01	-1.823000000000E-01
	Si121	Si	3.177000000000E-01	3.177000000000E-01	3.177000000000E-01
	Si122	Si	-3.177000000000E-01	-3.177000000000E-01	3.177000000000E-01
	Si123	Si	-3.177000000000E-01	3.177000000000E-01	-3.177000000000E-01
	Si124	Si	3.177000000000E-01	-3.177000000000E-01	-3.177000000000E-01
	Si125	Si	-1.823000000000E-01	-1.823000000000E-01	-1.823000000000E-01
	Si126	Si	1.823000000000E-01	1.823000000000E-01	-1.823000000000E-01
	Si127	Si	-1.823000000000E-01	1.823000000000E-01	1.823000000000E-01
	Si128	Si	1.823000000000E-01	-1.823000000000E-01	1.823000000000E-01
	Si129	Si	-3.177000000000E-01	-3.177000000000E-01	-3.177000000000E-01
	Si130	Si	3.177000000000E-01	3.177000000000E-01	-3.177000000000E-01
	Si131	Si	3.177000000000E-01	-3.177000000000E-01	3.177000000000E-01
	Si132	Si	-3.177000000000E-01	3.177000000000E-01	3.177000000000E-01
	Si133	Si	2.500000000000E-01	0.000000000000E+00	5.000000000000E-01
	Si134	Si	-2.500000000000E-01	0.000000000000E+00	5.000000000000E-01
	Si135	Si	5.000000000000E-01	2.500000000000E-01	0.000000000000E+00
	Si136	Si	0.000000000000E+00	5.000000000000E-01	2.500000000000E-01
	Si137	Si	5.000000000000E-01	-2.500000000000E-01	0.000000000000E+00
	Si138	Si	0.000000000000E+00	5.000000000000E-01	-2.500000000000E-01
