data MER
_chemical_name_common		'MER'
_cell_length_a		22.17553616
_cell_length_b		11.08776808
_cell_length_c		11.08776808
_cell_angle_alpha		101.623928
_cell_angle_beta		101.623928
_cell_angle_gamma		126.657197
_space group_name_H-M_alt		'P 1'
_space_group_IT_number		1

loop_
	_atom_site_label
	_atom_site_type_symbol
	_atom_site_fract_x
	_atom_site_fract_y
	_atom_site_fract_z
	O1	O	1.783000000000E-01	3.566000000000E-01	3.452000000000E-01
	O2	O	5.700000000000E-03	1.140000000000E-02	-3.452000000000E-01
	O3	O	-1.783000000000E-01	-1.140000000000E-02	-3.605283161403E-18
	O4	O	-5.700000000000E-03	-3.566000000000E-01	-7.969460070544E-18
	O5	O	-1.783000000000E-01	-3.566000000000E-01	-3.452000000000E-01
	O6	O	-5.700000000000E-03	-1.140000000000E-02	3.452000000000E-01
	O7	O	5.700000000000E-03	3.566000000000E-01	7.969460070544E-18
	O8	O	1.783000000000E-01	1.140000000000E-02	3.605283161403E-18
	O9	O	1.488000000000E-01	1.223000000000E-01	4.199000000000E-01
	O10	O	-1.488000000000E-01	-1.223000000000E-01	-4.199000000000E-01
	O11	O	-1.488000000000E-01	1.223000000000E-01	-1.753000000000E-01
	O12	O	1.488000000000E-01	-1.223000000000E-01	1.753000000000E-01
	O13	O	-6.115000000000E-02	-2.976000000000E-01	-4.199000000000E-01
	O14	O	6.115000000000E-02	2.976000000000E-01	4.199000000000E-01
	O15	O	-6.115000000000E-02	2.976000000000E-01	1.753000000000E-01
	O16	O	6.115000000000E-02	-2.976000000000E-01	-1.753000000000E-01
	O17	O	2.161500000000E-01	1.866000000000E-01	2.457000000000E-01
	O18	O	-2.955000000000E-02	1.866000000000E-01	-2.457000000000E-01
	O19	O	-2.161500000000E-01	-1.866000000000E-01	-2.457000000000E-01
	O20	O	2.955000000000E-02	-1.866000000000E-01	2.457000000000E-01
	O21	O	-9.330000000000E-02	-4.323000000000E-01	-2.457000000000E-01
	O22	O	-9.330000000000E-02	5.910000000000E-02	2.457000000000E-01
	O23	O	9.330000000000E-02	4.323000000000E-01	2.457000000000E-01
	O24	O	9.330000000000E-02	-5.910000000000E-02	-2.457000000000E-01
	O25	O	-1.987500000000E-01	3.975000000000E-01	5.000000000000E-01
	O26	O	-5.125000000000E-02	1.025000000000E-01	5.000000000000E-01
	O27	O	-3.012500000000E-01	-1.025000000000E-01	-2.050000000000E-01
	O28	O	5.125000000000E-02	-3.975000000000E-01	2.050000000000E-01
	O29	O	-3.012500000000E-01	-3.975000000000E-01	5.000000000000E-01
	O30	O	5.125000000000E-02	-1.025000000000E-01	5.000000000000E-01
	O31	O	-1.987500000000E-01	1.025000000000E-01	2.050000000000E-01
	O32	O	-5.125000000000E-02	3.975000000000E-01	-2.050000000000E-01
	Si33	Si	2.110500000000E-01	2.656000000000E-01	3.777000000000E-01
	Si34	Si	-5.605000000000E-02	4.440000000000E-02	-3.777000000000E-01
	Si35	Si	-2.110500000000E-01	-4.440000000000E-02	-1.565000000000E-01
	Si36	Si	5.605000000000E-02	-2.656000000000E-01	1.565000000000E-01
	Si37	Si	-1.328000000000E-01	-4.221000000000E-01	-3.777000000000E-01
	Si38	Si	-2.220000000000E-02	1.121000000000E-01	3.777000000000E-01
	Si39	Si	2.220000000000E-02	4.221000000000E-01	1.565000000000E-01
	Si40	Si	1.328000000000E-01	-1.121000000000E-01	-1.565000000000E-01
	Si41	Si	-2.110500000000E-01	-2.656000000000E-01	-3.777000000000E-01
	Si42	Si	5.605000000000E-02	-4.440000000000E-02	3.777000000000E-01
	Si43	Si	2.110500000000E-01	4.440000000000E-02	1.565000000000E-01
	Si44	Si	-5.605000000000E-02	2.656000000000E-01	-1.565000000000E-01
	Si45	Si	1.328000000000E-01	4.221000000000E-01	3.777000000000E-01
	Si46	Si	2.220000000000E-02	-1.121000000000E-01	-3.777000000000E-01
	Si47	Si	-2.220000000000E-02	-4.221000000000E-01	-1.565000000000E-01
	Si48	Si	-1.328000000000E-01	1.121000000000E-01	1.565000000000E-01
	O49	O	-4.943000000000E-01	1.140000000000E-02	-3.452000000000E-01
	O50	O	3.012500000000E-01	3.975000000000E-01	5.000000000000E-01
	O51	O	4.388500000000E-01	-2.976000000000E-01	-4.199000000000E-01
	O52	O	4.487500000000E-01	1.025000000000E-01	5.000000000000E-01
	O53	O	-4.943000000000E-01	3.566000000000E-01	-2.104114482419E-17
	O54	O	1.987500000000E-01	-1.025000000000E-01	-2.050000000000E-01
	O55	O	-4.388500000000E-01	2.976000000000E-01	4.199000000000E-01
	O56	O	-4.487500000000E-01	-3.975000000000E-01	2.050000000000E-01
	O57	O	4.943000000000E-01	-3.566000000000E-01	-4.368218471053E-17
	O58	O	1.987500000000E-01	-3.975000000000E-01	5.000000000000E-01
	O59	O	4.388500000000E-01	2.976000000000E-01	1.753000000000E-01
	O60	O	-4.487500000000E-01	-1.025000000000E-01	5.000000000000E-01
	O61	O	-3.217000000000E-01	1.140000000000E-02	-1.383057850139E-17
	O62	O	3.012500000000E-01	1.025000000000E-01	2.050000000000E-01
	O63	O	-4.388500000000E-01	-2.976000000000E-01	-1.753000000000E-01
	O64	O	4.487500000000E-01	3.975000000000E-01	-2.050000000000E-01
	O65	O	-3.217000000000E-01	3.566000000000E-01	3.452000000000E-01
	Si66	Si	-2.889500000000E-01	2.656000000000E-01	3.777000000000E-01
	O67	O	-2.838500000000E-01	1.866000000000E-01	2.457000000000E-01
	Si68	Si	4.439500000000E-01	4.440000000000E-02	-3.777000000000E-01
	O69	O	-3.512000000000E-01	1.223000000000E-01	4.199000000000E-01
	Si70	Si	2.889500000000E-01	-4.440000000000E-02	-1.565000000000E-01
	O71	O	4.704500000000E-01	1.866000000000E-01	-2.457000000000E-01
	Si72	Si	-4.439500000000E-01	-2.656000000000E-01	1.565000000000E-01
	O73	O	3.217000000000E-01	-3.566000000000E-01	-3.452000000000E-01
	Si74	Si	3.672000000000E-01	-4.221000000000E-01	-3.777000000000E-01
	O75	O	2.838500000000E-01	-1.866000000000E-01	-2.457000000000E-01
	Si76	Si	4.778000000000E-01	1.121000000000E-01	3.777000000000E-01
	O77	O	3.512000000000E-01	-1.223000000000E-01	-4.199000000000E-01
	Si78	Si	-4.778000000000E-01	4.221000000000E-01	1.565000000000E-01
	O79	O	-4.704500000000E-01	-1.866000000000E-01	2.457000000000E-01
	Si80	Si	-3.672000000000E-01	-1.121000000000E-01	-1.565000000000E-01
	O81	O	3.217000000000E-01	-1.140000000000E-02	1.619314342987E-17
	Si82	Si	2.889500000000E-01	-2.656000000000E-01	-3.777000000000E-01
	O83	O	4.067000000000E-01	-4.323000000000E-01	-2.457000000000E-01
	Si84	Si	-4.439500000000E-01	-4.440000000000E-02	3.777000000000E-01
	O85	O	3.512000000000E-01	1.223000000000E-01	-1.753000000000E-01
	Si86	Si	-2.889500000000E-01	4.440000000000E-02	1.565000000000E-01
	O87	O	4.067000000000E-01	5.910000000000E-02	2.457000000000E-01
	Si88	Si	4.439500000000E-01	2.656000000000E-01	-1.565000000000E-01
	O89	O	4.943000000000E-01	-1.140000000000E-02	3.452000000000E-01
	Si90	Si	-3.672000000000E-01	4.221000000000E-01	3.777000000000E-01
	O91	O	-4.067000000000E-01	4.323000000000E-01	2.457000000000E-01
	Si92	Si	-4.778000000000E-01	-1.121000000000E-01	-3.777000000000E-01
	O93	O	-3.512000000000E-01	-1.223000000000E-01	1.753000000000E-01
	Si94	Si	4.778000000000E-01	-4.221000000000E-01	-1.565000000000E-01
	O95	O	-4.067000000000E-01	-5.910000000000E-02	-2.457000000000E-01
	Si96	Si	3.672000000000E-01	1.121000000000E-01	1.565000000000E-01
