data MFS
_chemical_name_common		'MFS'
_cell_length_a		12.50519541
_cell_length_b		25.01039082
_cell_length_c		12.50519541
_cell_angle_alpha		144.893187
_cell_angle_beta		109.761388
_cell_angle_gamma		81.014464
_space group_name_H-M_alt		'P 1'
_space_group_IT_number		1

loop_
	_atom_site_label
	_atom_site_type_symbol
	_atom_site_fract_x
	_atom_site_fract_y
	_atom_site_fract_z
	O1	O	4.751000000000E-01	2.889500000000E-01	-4.512000000000E-01
	O2	O	2.910000000000E-02	-3.685000000000E-02	4.512000000000E-01
	O3	O	4.751000000000E-01	-3.685000000000E-02	-1.028000000000E-01
	O4	O	2.910000000000E-02	2.889500000000E-01	1.028000000000E-01
	O5	O	3.880000000000E-01	1.859000000000E-01	-4.826000000000E-01
	O6	O	-1.456000000000E-01	-6.470000000000E-02	4.826000000000E-01
	O7	O	3.880000000000E-01	-6.470000000000E-02	1.620000000000E-02
	O8	O	-1.456000000000E-01	1.859000000000E-01	-1.620000000000E-02
	O9	O	4.111000000000E-01	1.027000000000E-01	2.057000000000E-01
	O10	O	-3.000000000003E-04	1.027000000000E-01	-2.057000000000E-01
	O11	O	2.534000000000E-01	2.054000000000E-01	3.404000000000E-01
	O12	O	7.040000000000E-02	-4.350000000000E-02	-3.404000000000E-01
	O13	O	2.534000000000E-01	-4.350000000000E-02	-1.574000000000E-01
	O14	O	7.040000000000E-02	2.054000000000E-01	1.574000000000E-01
	O15	O	-3.754000000000E-01	1.421000000000E-01	-1.576000000000E-01
	O16	O	4.418000000000E-01	-1.089000000000E-01	1.576000000000E-01
	O17	O	-3.754000000000E-01	-1.089000000000E-01	3.404000000000E-01
	O18	O	4.418000000000E-01	1.421000000000E-01	-3.404000000000E-01
	O19	O	-2.532000000000E-01	8.105000000000E-02	-6.650000000000E-02
	O20	O	2.286000000000E-01	-9.335000000000E-02	6.650000000000E-02
	O21	O	-2.532000000000E-01	-9.335000000000E-02	-4.153000000000E-01
	O22	O	2.286000000000E-01	8.105000000000E-02	4.153000000000E-01
	O23	O	-2.560000000000E-01	-2.373500000000E-01	2.187000000000E-01
	O24	O	3.066000000000E-01	-2.373500000000E-01	-2.187000000000E-01
	O25	O	4.020000000000E-02	-2.555000000000E-02	9.130000000000E-02
	O26	O	-1.424000000000E-01	-2.555000000000E-02	-9.130000000000E-02
	O27	O	1.062000000000E-01	-6.605000000000E-02	2.383000000000E-01
	O28	O	-3.704000000000E-01	-6.605000000000E-02	-2.383000000000E-01
	O29	O	4.102000000000E-01	-9.045000000000E-02	-4.089000000000E-01
	O30	O	2.280000000000E-01	-9.045000000000E-02	4.089000000000E-01
	O31	O	9.530000000000E-02	-2.023500000000E-01	-5.000000000000E-01
	O32	O	4.630000000000E-02	1.104500000000E-01	1.746000000000E-01
	O33	O	4.630000000000E-02	-6.415000000000E-02	-1.746000000000E-01
	O34	O	4.657000000000E-01	-2.671500000000E-01	-2.220446049250E-16
	O35	O	4.172000000000E-01	4.570000000000E-02	-3.258000000000E-01
	O36	O	4.172000000000E-01	-1.285000000000E-01	3.258000000000E-01
	Si37	Si	3.816000000000E-01	1.955500000000E-01	4.031000000000E-01
	Si38	Si	-1.200000000000E-02	-1.075000000000E-02	-4.031000000000E-01
	Si39	Si	3.816000000000E-01	-1.075000000000E-02	-9.500000000000E-03
	Si40	Si	-1.200000000000E-02	1.955500000000E-01	9.500000000000E-03
	Si41	Si	-2.575000000000E-01	1.679000000000E-01	-5.900000000000E-03
	Si42	Si	3.417000000000E-01	-1.258000000000E-01	5.900000000000E-03
	Si43	Si	-2.575000000000E-01	-1.258000000000E-01	4.067000000000E-01
	Si44	Si	3.417000000000E-01	1.679000000000E-01	-4.067000000000E-01
	Si45	Si	1.514000000000E-01	-2.590000000000E-02	2.032000000000E-01
	Si46	Si	-2.550000000000E-01	-2.590000000000E-02	-2.032000000000E-01
	Si47	Si	4.970000000000E-01	-1.011500000000E-01	-3.007000000000E-01
	Si48	Si	9.840000000000E-02	-1.011500000000E-01	3.007000000000E-01
	Si49	Si	1.166000000000E-01	2.050500000000E-01	2.935000000000E-01
	Si50	Si	1.166000000000E-01	-8.845000000000E-02	-2.935000000000E-01
	Si51	Si	4.873000000000E-01	1.404500000000E-01	-2.064000000000E-01
	Si52	Si	4.873000000000E-01	-1.531500000000E-01	2.064000000000E-01
	Si53	Si	3.683000000000E-01	-6.585000000000E-02	5.000000000000E-01
	Si54	Si	-2.200000000000E-03	-1.100000000000E-03	2.067310801807E-19
	O55	O	7.040000000000E-02	-2.946000000000E-01	1.574000000000E-01
	O56	O	-3.704000000000E-01	4.339500000000E-01	-2.383000000000E-01
	O57	O	2.910000000000E-02	-2.110500000000E-01	1.028000000000E-01
	O58	O	4.102000000000E-01	4.095500000000E-01	-4.089000000000E-01
	O59	O	-3.754000000000E-01	-3.579000000000E-01	-1.576000000000E-01
	O60	O	2.280000000000E-01	4.095500000000E-01	4.089000000000E-01
	O61	O	-1.456000000000E-01	-3.141000000000E-01	-1.620000000000E-02
	O62	O	9.530000000000E-02	2.976500000000E-01	5.000000000000E-01
	O63	O	4.418000000000E-01	3.911000000000E-01	1.576000000000E-01
	O64	O	4.630000000000E-02	-3.895500000000E-01	1.746000000000E-01
	O65	O	4.751000000000E-01	-2.110500000000E-01	-4.512000000000E-01
	O66	O	4.630000000000E-02	4.358500000000E-01	-1.746000000000E-01
	O67	O	-3.754000000000E-01	3.911000000000E-01	3.404000000000E-01
	O68	O	4.657000000000E-01	2.328500000000E-01	-2.597392831791E-16
	O69	O	4.111000000000E-01	-3.973000000000E-01	2.057000000000E-01
	O70	O	4.172000000000E-01	-4.543000000000E-01	-3.258000000000E-01
	O71	O	4.418000000000E-01	-3.579000000000E-01	-3.404000000000E-01
	O72	O	4.172000000000E-01	3.715000000000E-01	3.258000000000E-01
	O73	O	3.880000000000E-01	-3.141000000000E-01	-4.826000000000E-01
	Si74	Si	3.816000000000E-01	-3.044500000000E-01	4.031000000000E-01
	O75	O	-2.532000000000E-01	-4.189500000000E-01	-6.650000000000E-02
	Si76	Si	-1.200000000000E-02	4.892500000000E-01	-4.031000000000E-01
	O77	O	-3.000000000001E-04	-3.973000000000E-01	-2.057000000000E-01
	Si78	Si	3.816000000000E-01	4.892500000000E-01	-9.500000000000E-03
	O79	O	2.286000000000E-01	4.066500000000E-01	6.650000000000E-02
	Si80	Si	-1.200000000000E-02	-3.044500000000E-01	9.500000000000E-03
	O81	O	4.751000000000E-01	4.631500000000E-01	-1.028000000000E-01
	Si82	Si	-2.575000000000E-01	-3.321000000000E-01	-5.900000000000E-03
	O83	O	-2.532000000000E-01	4.066500000000E-01	-4.153000000000E-01
	Si84	Si	3.417000000000E-01	3.742000000000E-01	5.900000000000E-03
	O85	O	2.534000000000E-01	-2.946000000000E-01	3.404000000000E-01
	Si86	Si	-2.575000000000E-01	3.742000000000E-01	4.067000000000E-01
	O87	O	2.286000000000E-01	-4.189500000000E-01	4.153000000000E-01
	Si88	Si	3.417000000000E-01	-3.321000000000E-01	-4.067000000000E-01
	O89	O	-1.456000000000E-01	4.353000000000E-01	4.826000000000E-01
	Si90	Si	1.514000000000E-01	4.741000000000E-01	2.032000000000E-01
	O91	O	-2.560000000000E-01	2.626500000000E-01	2.187000000000E-01
	Si92	Si	-2.550000000000E-01	4.741000000000E-01	-2.032000000000E-01
	O93	O	7.040000000000E-02	4.565000000000E-01	-3.404000000000E-01
	Si94	Si	4.970000000000E-01	3.988500000000E-01	-3.007000000000E-01
	O95	O	3.066000000000E-01	2.626500000000E-01	-2.187000000000E-01
	Si96	Si	9.840000000000E-02	3.988500000000E-01	3.007000000000E-01
	O97	O	2.910000000000E-02	4.631500000000E-01	4.512000000000E-01
	Si98	Si	1.166000000000E-01	-2.949500000000E-01	2.935000000000E-01
	O99	O	4.020000000000E-02	4.744500000000E-01	9.130000000000E-02
	Si100	Si	1.166000000000E-01	4.115500000000E-01	-2.935000000000E-01
	O101	O	2.534000000000E-01	4.565000000000E-01	-1.574000000000E-01
	Si102	Si	4.873000000000E-01	-3.595500000000E-01	-2.064000000000E-01
	O103	O	-1.424000000000E-01	4.744500000000E-01	-9.130000000000E-02
	Si104	Si	4.873000000000E-01	3.468500000000E-01	2.064000000000E-01
	O105	O	3.880000000000E-01	4.353000000000E-01	1.620000000000E-02
	Si106	Si	3.683000000000E-01	4.341500000000E-01	5.000000000000E-01
	O107	O	1.062000000000E-01	4.339500000000E-01	2.383000000000E-01
	Si108	Si	-2.200000000000E-03	4.989000000000E-01	-3.369233887784E-16
