data MON
_chemical_name_common		'MON'
_cell_length_a		20.46892599
_cell_length_b		10.23446299
_cell_length_c		20.46892599
_cell_angle_alpha		139.199375
_cell_angle_beta		139.199375
_cell_angle_gamma		59.070975
_space group_name_H-M_alt		'P 1'
_space_group_IT_number		1

loop_
	_atom_site_label
	_atom_site_type_symbol
	_atom_site_fract_x
	_atom_site_fract_y
	_atom_site_fract_z
	O1	O	2.418500000000E-01	-1.630000000000E-02	2.500000000000E-01
	O2	O	-1.168500000000E-01	-2.337000000000E-01	-1.110223024625E-16
	O3	O	8.150000000000E-03	-4.837000000000E-01	2.500000000000E-01
	O4	O	1.168500000000E-01	2.337000000000E-01	0.000000000000E+00
	O5	O	-9.210000000000E-02	-1.842000000000E-01	-1.842000000000E-01
	O6	O	9.210000000000E-02	1.842000000000E-01	1.842000000000E-01
	O7	O	2.171000000000E-01	-4.342000000000E-01	2.500000000000E-01
	O8	O	3.290000000000E-02	-6.580000000000E-02	2.500000000000E-01
	O9	O	2.171000000000E-01	-6.580000000000E-02	4.342000000000E-01
	O10	O	3.290000000000E-02	-4.342000000000E-01	6.580000000000E-02
	O11	O	-9.210000000000E-02	1.842000000000E-01	1.665334536938E-16
	O12	O	9.210000000000E-02	-1.842000000000E-01	-1.387778780781E-16
	O13	O	-1.875000000000E-01	-1.250000000000E-01	-1.250000000000E-01
	O14	O	6.250000000000E-02	-1.250000000000E-01	1.250000000000E-01
	O15	O	6.250000000000E-02	3.750000000000E-01	1.250000000000E-01
	O16	O	6.250000000000E-02	-1.250000000000E-01	-1.250000000000E-01
	Si17	Si	3.424000000000E-01	-3.550000000000E-02	3.601500000000E-01
	Si18	Si	1.221000000000E-01	-3.550000000000E-02	1.398500000000E-01
	Si19	Si	-2.174000000000E-01	-2.145000000000E-01	-1.101500000000E-01
	Si20	Si	2.900000000000E-03	-2.145000000000E-01	1.101500000000E-01
	Si21	Si	1.775000000000E-02	3.152000000000E-01	1.398500000000E-01
	Si22	Si	1.775000000000E-02	-2.442000000000E-01	-1.398500000000E-01
	Si23	Si	1.072500000000E-01	4.348000000000E-01	1.101500000000E-01
	Si24	Si	1.072500000000E-01	-5.800000000000E-03	3.898500000000E-01
	O25	O	3.831500000000E-01	-2.337000000000E-01	-1.110223024625E-16
	O26	O	2.171000000000E-01	-4.342000000000E-01	-2.500000000000E-01
	O27	O	-2.829000000000E-01	-4.342000000000E-01	2.500000000000E-01
	O28	O	-2.829000000000E-01	-4.342000000000E-01	-2.500000000000E-01
	O29	O	3.831500000000E-01	-2.337000000000E-01	-5.000000000000E-01
	O30	O	3.290000000000E-02	-6.580000000000E-02	-2.500000000000E-01
	O31	O	-4.671000000000E-01	-6.580000000000E-02	2.500000000000E-01
	O32	O	-4.671000000000E-01	-6.580000000000E-02	-2.500000000000E-01
	O33	O	-2.581500000000E-01	-1.630000000000E-02	2.500000000000E-01
	O34	O	2.171000000000E-01	-6.580000000000E-02	-6.580000000000E-02
	O35	O	-2.829000000000E-01	-6.580000000000E-02	4.342000000000E-01
	O36	O	-2.829000000000E-01	-6.580000000000E-02	-6.580000000000E-02
	O37	O	8.150000000000E-03	-4.837000000000E-01	-2.500000000000E-01
	O38	O	3.290000000000E-02	-4.342000000000E-01	-4.342000000000E-01
	O39	O	-4.671000000000E-01	-4.342000000000E-01	6.580000000000E-02
	O40	O	-4.671000000000E-01	-4.342000000000E-01	-4.342000000000E-01
	O41	O	-4.918500000000E-01	-4.837000000000E-01	2.500000000000E-01
	O42	O	-9.210000000000E-02	1.842000000000E-01	-5.000000000000E-01
	O43	O	4.079000000000E-01	1.842000000000E-01	1.110223024625E-16
	O44	O	4.079000000000E-01	1.842000000000E-01	-5.000000000000E-01
	O45	O	-4.918500000000E-01	-4.837000000000E-01	-2.500000000000E-01
	O46	O	9.210000000000E-02	-1.842000000000E-01	-5.000000000000E-01
	O47	O	-4.079000000000E-01	-1.842000000000E-01	-1.387778780781E-16
	O48	O	-4.079000000000E-01	-1.842000000000E-01	-5.000000000000E-01
	O49	O	-2.581500000000E-01	-1.630000000000E-02	-2.500000000000E-01
	O50	O	-1.875000000000E-01	-1.250000000000E-01	3.750000000000E-01
	O51	O	3.125000000000E-01	-1.250000000000E-01	-1.250000000000E-01
	O52	O	3.125000000000E-01	-1.250000000000E-01	3.750000000000E-01
	O53	O	1.168500000000E-01	2.337000000000E-01	-5.000000000000E-01
	O54	O	6.250000000000E-02	-1.250000000000E-01	-3.750000000000E-01
	O55	O	-4.375000000000E-01	-1.250000000000E-01	1.250000000000E-01
	O56	O	-4.375000000000E-01	-1.250000000000E-01	-3.750000000000E-01
	O57	O	-3.831500000000E-01	2.337000000000E-01	0.000000000000E+00
	O58	O	6.250000000000E-02	3.750000000000E-01	-3.750000000000E-01
	O59	O	-4.375000000000E-01	3.750000000000E-01	1.250000000000E-01
	O60	O	-4.375000000000E-01	3.750000000000E-01	-3.750000000000E-01
	O61	O	-3.831500000000E-01	2.337000000000E-01	-5.000000000000E-01
	O62	O	6.250000000000E-02	-1.250000000000E-01	3.750000000000E-01
	O63	O	-4.375000000000E-01	-1.250000000000E-01	-1.250000000000E-01
	O64	O	-4.375000000000E-01	-1.250000000000E-01	3.750000000000E-01
	O65	O	2.418500000000E-01	-1.630000000000E-02	-2.500000000000E-01
	Si66	Si	3.424000000000E-01	-3.550000000000E-02	-1.398500000000E-01
	Si67	Si	-1.576000000000E-01	-3.550000000000E-02	3.601500000000E-01
	Si68	Si	-1.576000000000E-01	-3.550000000000E-02	-1.398500000000E-01
	O69	O	-9.210000000000E-02	-1.842000000000E-01	3.158000000000E-01
	Si70	Si	1.221000000000E-01	-3.550000000000E-02	-3.601500000000E-01
	Si71	Si	-3.779000000000E-01	-3.550000000000E-02	1.398500000000E-01
	Si72	Si	-3.779000000000E-01	-3.550000000000E-02	-3.601500000000E-01
	O73	O	4.079000000000E-01	-1.842000000000E-01	-1.842000000000E-01
	Si74	Si	-2.174000000000E-01	-2.145000000000E-01	3.898500000000E-01
	Si75	Si	2.826000000000E-01	-2.145000000000E-01	-1.101500000000E-01
	Si76	Si	2.826000000000E-01	-2.145000000000E-01	3.898500000000E-01
	O77	O	4.079000000000E-01	-1.842000000000E-01	3.158000000000E-01
	Si78	Si	2.900000000000E-03	-2.145000000000E-01	-3.898500000000E-01
	Si79	Si	-4.971000000000E-01	-2.145000000000E-01	1.101500000000E-01
	Si80	Si	-4.971000000000E-01	-2.145000000000E-01	-3.898500000000E-01
	O81	O	-1.168500000000E-01	-2.337000000000E-01	-5.000000000000E-01
	Si82	Si	1.775000000000E-02	3.152000000000E-01	-3.601500000000E-01
	Si83	Si	-4.822500000000E-01	3.152000000000E-01	1.398500000000E-01
	Si84	Si	-4.822500000000E-01	3.152000000000E-01	-3.601500000000E-01
	O85	O	9.210000000000E-02	1.842000000000E-01	-3.158000000000E-01
	Si86	Si	1.775000000000E-02	-2.442000000000E-01	3.601500000000E-01
	Si87	Si	-4.822500000000E-01	-2.442000000000E-01	-1.398500000000E-01
	Si88	Si	-4.822500000000E-01	-2.442000000000E-01	3.601500000000E-01
	O89	O	-4.079000000000E-01	1.842000000000E-01	1.842000000000E-01
	Si90	Si	1.072500000000E-01	4.348000000000E-01	-3.898500000000E-01
	Si91	Si	-3.927500000000E-01	4.348000000000E-01	1.101500000000E-01
	Si92	Si	-3.927500000000E-01	4.348000000000E-01	-3.898500000000E-01
	O93	O	-4.079000000000E-01	1.842000000000E-01	-3.158000000000E-01
	Si94	Si	1.072500000000E-01	-5.800000000000E-03	-1.101500000000E-01
	Si95	Si	-3.927500000000E-01	-5.800000000000E-03	3.898500000000E-01
	Si96	Si	-3.927500000000E-01	-5.800000000000E-03	-1.101500000000E-01
