data MOR
_chemical_name_common		'MOR'
_cell_length_a		13.73796466
_cell_length_b		13.73796466
_cell_length_c		7.54200000
_cell_angle_alpha		90.000000
_cell_angle_beta		90.000000
_cell_angle_gamma		83.278162
_space group_name_H-M_alt		'P 1'
_space_group_IT_number		1

loop_
	_atom_site_label
	_atom_site_type_symbol
	_atom_site_fract_x
	_atom_site_fract_y
	_atom_site_fract_z
	O1	O	2.811000000000E-01	-2.811000000000E-01	0.000000000000E+00
	O2	O	-2.811000000000E-01	2.811000000000E-01	-5.000000000000E-01
	O3	O	-2.811000000000E-01	2.811000000000E-01	0.000000000000E+00
	O4	O	2.811000000000E-01	-2.811000000000E-01	-5.000000000000E-01
	O5	O	4.063000000000E-01	-2.473000000000E-01	2.500000000000E-01
	O6	O	-4.063000000000E-01	2.473000000000E-01	-2.500000000000E-01
	O7	O	2.473000000000E-01	-4.063000000000E-01	-2.500000000000E-01
	O8	O	-2.473000000000E-01	4.063000000000E-01	2.500000000000E-01
	O9	O	4.681000000000E-01	-2.833000000000E-01	-7.570000000000E-02
	O10	O	-4.681000000000E-01	2.833000000000E-01	4.243000000000E-01
	O11	O	2.833000000000E-01	-4.681000000000E-01	7.570000000000E-02
	O12	O	-2.833000000000E-01	4.681000000000E-01	-4.243000000000E-01
	O13	O	-4.681000000000E-01	2.833000000000E-01	7.570000000000E-02
	O14	O	4.681000000000E-01	-2.833000000000E-01	-4.243000000000E-01
	O15	O	-2.833000000000E-01	4.681000000000E-01	-7.570000000000E-02
	O16	O	2.833000000000E-01	-4.681000000000E-01	4.243000000000E-01
	O17	O	3.614000000000E-01	-1.168000000000E-01	-8.000000000000E-04
	O18	O	-3.614000000000E-01	1.168000000000E-01	4.992000000000E-01
	O19	O	1.168000000000E-01	-3.614000000000E-01	8.000000000000E-04
	O20	O	-1.168000000000E-01	3.614000000000E-01	-4.992000000000E-01
	O21	O	-3.614000000000E-01	1.168000000000E-01	8.000000000000E-04
	O22	O	3.614000000000E-01	-1.168000000000E-01	-4.992000000000E-01
	O23	O	-1.168000000000E-01	3.614000000000E-01	-8.000000000000E-04
	O24	O	1.168000000000E-01	-3.614000000000E-01	4.992000000000E-01
	O25	O	-3.658000000000E-01	-1.640000000000E-02	2.500000000000E-01
	O26	O	3.658000000000E-01	1.640000000000E-02	-2.500000000000E-01
	O27	O	1.640000000000E-02	3.658000000000E-01	-2.500000000000E-01
	O28	O	-1.640000000000E-02	-3.658000000000E-01	2.500000000000E-01
	O29	O	-5.000000000000E-01	-1.221171528403E-17	0.000000000000E+00
	O30	O	-5.000000000000E-01	-1.221171528403E-17	-5.000000000000E-01
	O31	O	-1.221171528403E-17	-5.000000000000E-01	0.000000000000E+00
	O32	O	-1.221171528403E-17	-5.000000000000E-01	-5.000000000000E-01
	O33	O	-3.185000000000E-01	-6.990000000000E-02	-7.580000000000E-02
	O34	O	3.185000000000E-01	6.990000000000E-02	4.242000000000E-01
	O35	O	6.990000000000E-02	3.185000000000E-01	7.580000000000E-02
	O36	O	-6.990000000000E-02	-3.185000000000E-01	-4.242000000000E-01
	O37	O	3.185000000000E-01	6.990000000000E-02	7.580000000000E-02
	O38	O	-3.185000000000E-01	-6.990000000000E-02	-4.242000000000E-01
	O39	O	-6.990000000000E-02	-3.185000000000E-01	-7.580000000000E-02
	O40	O	6.990000000000E-02	3.185000000000E-01	4.242000000000E-01
	O41	O	4.005000000000E-01	4.005000000000E-01	2.500000000000E-01
	O42	O	-4.005000000000E-01	-4.005000000000E-01	-2.500000000000E-01
	O43	O	3.915000000000E-01	2.103000000000E-01	2.500000000000E-01
	O44	O	-3.915000000000E-01	-2.103000000000E-01	-2.500000000000E-01
	O45	O	-2.103000000000E-01	-3.915000000000E-01	-2.500000000000E-01
	O46	O	2.103000000000E-01	3.915000000000E-01	2.500000000000E-01
	O47	O	2.013000000000E-01	2.013000000000E-01	2.500000000000E-01
	O48	O	-2.013000000000E-01	-2.013000000000E-01	-2.500000000000E-01
	Si49	Si	3.793000000000E-01	-2.321000000000E-01	4.350000000000E-02
	Si50	Si	-3.793000000000E-01	2.321000000000E-01	-4.565000000000E-01
	Si51	Si	2.321000000000E-01	-3.793000000000E-01	-4.350000000000E-02
	Si52	Si	-2.321000000000E-01	3.793000000000E-01	4.565000000000E-01
	Si53	Si	-3.793000000000E-01	2.321000000000E-01	-4.350000000000E-02
	Si54	Si	3.793000000000E-01	-2.321000000000E-01	4.565000000000E-01
	Si55	Si	-2.321000000000E-01	3.793000000000E-01	4.350000000000E-02
	Si56	Si	2.321000000000E-01	-3.793000000000E-01	-4.565000000000E-01
	Si57	Si	-3.866000000000E-01	7.800000000000E-03	4.370000000000E-02
	Si58	Si	3.866000000000E-01	-7.800000000000E-03	-4.563000000000E-01
	Si59	Si	-7.800000000000E-03	3.866000000000E-01	-4.370000000000E-02
	Si60	Si	7.800000000000E-03	-3.866000000000E-01	4.563000000000E-01
	Si61	Si	3.866000000000E-01	-7.800000000000E-03	-4.370000000000E-02
	Si62	Si	-3.866000000000E-01	7.800000000000E-03	4.563000000000E-01
	Si63	Si	7.800000000000E-03	-3.866000000000E-01	4.370000000000E-02
	Si64	Si	-7.800000000000E-03	3.866000000000E-01	-4.563000000000E-01
	Si65	Si	4.639000000000E-01	2.943000000000E-01	2.500000000000E-01
	Si66	Si	-4.639000000000E-01	-2.943000000000E-01	-2.500000000000E-01
	Si67	Si	-2.943000000000E-01	-4.639000000000E-01	-2.500000000000E-01
	Si68	Si	2.943000000000E-01	4.639000000000E-01	2.500000000000E-01
	Si69	Si	3.075000000000E-01	1.379000000000E-01	2.500000000000E-01
	Si70	Si	-3.075000000000E-01	-1.379000000000E-01	-2.500000000000E-01
	Si71	Si	-1.379000000000E-01	-3.075000000000E-01	-2.500000000000E-01
	Si72	Si	1.379000000000E-01	3.075000000000E-01	2.500000000000E-01
