data MRT
_chemical_name_common		'MRT'
_cell_length_a		13.62070000
_cell_length_b		7.54660000
_cell_length_c		13.62190000
_cell_angle_alpha		90.000000
_cell_angle_beta		90.000000
_cell_angle_gamma		90.000000
_space group_name_H-M_alt		'P 1'
_space_group_IT_number		1

loop_
	_atom_site_label
	_atom_site_type_symbol
	_atom_site_fract_x
	_atom_site_fract_y
	_atom_site_fract_z
	Si1	Si	-3.624000000000E-01	2.960300000000E-01	2.245600000000E-01
	Si2	Si	-1.376000000000E-01	-2.960300000000E-01	2.245600000000E-01
	Si3	Si	1.376000000000E-01	-2.960300000000E-01	-2.245600000000E-01
	Si4	Si	3.624000000000E-01	2.960300000000E-01	-2.245600000000E-01
	Si5	Si	3.624000000000E-01	-2.960300000000E-01	-2.245600000000E-01
	Si6	Si	1.376000000000E-01	2.960300000000E-01	-2.245600000000E-01
	Si7	Si	-1.376000000000E-01	2.960300000000E-01	2.245600000000E-01
	Si8	Si	-3.624000000000E-01	-2.960300000000E-01	2.245600000000E-01
	Si9	Si	-2.127000000000E-02	2.956000000000E-01	-3.888700000000E-01
	Si10	Si	-4.787300000000E-01	-2.956000000000E-01	-3.888700000000E-01
	Si11	Si	4.787300000000E-01	-2.956000000000E-01	3.888700000000E-01
	Si12	Si	2.127000000000E-02	2.956000000000E-01	3.888700000000E-01
	Si13	Si	2.127000000000E-02	-2.956000000000E-01	3.888700000000E-01
	Si14	Si	4.787300000000E-01	2.956000000000E-01	3.888700000000E-01
	Si15	Si	-4.787300000000E-01	2.956000000000E-01	-3.888700000000E-01
	Si16	Si	-2.127000000000E-02	-2.956000000000E-01	-3.888700000000E-01
	Si17	Si	-3.655700000000E-01	0.000000000000E+00	-2.800200000000E-01
	Si18	Si	-1.344300000000E-01	0.000000000000E+00	-2.800200000000E-01
	Si19	Si	1.344300000000E-01	0.000000000000E+00	2.800200000000E-01
	Si20	Si	3.655700000000E-01	0.000000000000E+00	2.800200000000E-01
	Si21	Si	-4.744100000000E-01	0.000000000000E+00	1.151200000000E-01
	Si22	Si	-2.559000000000E-02	0.000000000000E+00	1.151200000000E-01
	Si23	Si	2.559000000000E-02	0.000000000000E+00	-1.151200000000E-01
	Si24	Si	4.744100000000E-01	0.000000000000E+00	-1.151200000000E-01
	O25	O	-2.500000000000E-01	2.369900000000E-01	2.409600000000E-01
	O26	O	-2.500000000000E-01	-2.369900000000E-01	2.409600000000E-01
	O27	O	2.500000000000E-01	-2.369900000000E-01	-2.409600000000E-01
	O28	O	2.500000000000E-01	2.369900000000E-01	-2.409600000000E-01
	O29	O	-4.222200000000E-01	2.731900000000E-01	3.256400000000E-01
	O30	O	-7.778000000000E-02	-2.731900000000E-01	3.256400000000E-01
	O31	O	7.778000000000E-02	-2.731900000000E-01	-3.256400000000E-01
	O32	O	4.222200000000E-01	2.731900000000E-01	-3.256400000000E-01
	O33	O	4.222200000000E-01	-2.731900000000E-01	-3.256400000000E-01
	O34	O	7.778000000000E-02	2.731900000000E-01	-3.256400000000E-01
	O35	O	-7.778000000000E-02	2.731900000000E-01	3.256400000000E-01
	O36	O	-4.222200000000E-01	-2.731900000000E-01	3.256400000000E-01
	O37	O	-4.111800000000E-01	1.741400000000E-01	1.407700000000E-01
	O38	O	-8.882000000000E-02	-1.741400000000E-01	1.407700000000E-01
	O39	O	8.882000000000E-02	-1.741400000000E-01	-1.407700000000E-01
	O40	O	4.111800000000E-01	1.741400000000E-01	-1.407700000000E-01
	O41	O	4.111800000000E-01	-1.741400000000E-01	-1.407700000000E-01
	O42	O	8.882000000000E-02	1.741400000000E-01	-1.407700000000E-01
	O43	O	-8.882000000000E-02	1.741400000000E-01	1.407700000000E-01
	O44	O	-4.111800000000E-01	-1.741400000000E-01	1.407700000000E-01
	O45	O	-3.658600000000E-01	-5.000000000000E-01	1.901900000000E-01
	O46	O	-1.341400000000E-01	-5.000000000000E-01	1.901900000000E-01
	O47	O	1.341400000000E-01	-5.000000000000E-01	-1.901900000000E-01
	O48	O	3.658600000000E-01	-5.000000000000E-01	-1.901900000000E-01
	O49	O	0.000000000000E+00	2.339400000000E-01	-5.000000000000E-01
	O50	O	-5.000000000000E-01	-2.339400000000E-01	-5.000000000000E-01
	O51	O	0.000000000000E+00	-2.339400000000E-01	-5.000000000000E-01
	O52	O	-5.000000000000E-01	2.339400000000E-01	-5.000000000000E-01
	O53	O	-1.066000000000E-01	1.742000000000E-01	-3.423300000000E-01
	O54	O	-3.934000000000E-01	-1.742000000000E-01	-3.423300000000E-01
	O55	O	3.934000000000E-01	-1.742000000000E-01	3.423300000000E-01
	O56	O	1.066000000000E-01	1.742000000000E-01	3.423300000000E-01
	O57	O	1.066000000000E-01	-1.742000000000E-01	3.423300000000E-01
	O58	O	3.934000000000E-01	1.742000000000E-01	3.423300000000E-01
	O59	O	-3.934000000000E-01	1.742000000000E-01	-3.423300000000E-01
	O60	O	-1.066000000000E-01	-1.742000000000E-01	-3.423300000000E-01
	O61	O	-5.506000000000E-02	-5.000000000000E-01	-3.879400000000E-01
	O62	O	-4.449400000000E-01	-5.000000000000E-01	-3.879400000000E-01
	O63	O	4.449400000000E-01	-5.000000000000E-01	3.879400000000E-01
	O64	O	5.506000000000E-02	-5.000000000000E-01	3.879400000000E-01
	O65	O	-4.257700000000E-01	0.000000000000E+00	-1.783200000000E-01
	O66	O	-7.423000000000E-02	0.000000000000E+00	-1.783200000000E-01
	O67	O	7.423000000000E-02	0.000000000000E+00	1.783200000000E-01
	O68	O	4.257700000000E-01	0.000000000000E+00	1.783200000000E-01
	O69	O	-2.500000000000E-01	0.000000000000E+00	-2.557200000000E-01
	O70	O	2.500000000000E-01	0.000000000000E+00	2.557200000000E-01
	O71	O	-5.000000000000E-01	0.000000000000E+00	0.000000000000E+00
	O72	O	0.000000000000E+00	0.000000000000E+00	0.000000000000E+00
