data MSO
_chemical_name_common		'MSO'
_cell_length_a		11.90405113
_cell_length_b		11.90405113
_cell_length_c		11.90405113
_cell_angle_alpha		92.269751
_cell_angle_beta		92.269751
_cell_angle_gamma		92.269751
_space group_name_H-M_alt		'P 1'
_space_group_IT_number		1

loop_
	_atom_site_label
	_atom_site_type_symbol
	_atom_site_fract_x
	_atom_site_fract_y
	_atom_site_fract_z
	O1	O	3.806500000000E-01	9.490000000000E-02	3.806500000000E-01
	O2	O	3.806500000000E-01	3.806500000000E-01	9.490000000000E-02
	O3	O	9.490000000000E-02	3.806500000000E-01	3.806500000000E-01
	O4	O	-9.490000000000E-02	-3.806500000000E-01	-3.806500000000E-01
	O5	O	-3.806500000000E-01	-3.806500000000E-01	-9.490000000000E-02
	O6	O	-3.806500000000E-01	-9.490000000000E-02	-3.806500000000E-01
	O7	O	2.016000000000E-01	4.392000000000E-01	2.016000000000E-01
	O8	O	2.016000000000E-01	2.016000000000E-01	4.392000000000E-01
	O9	O	4.392000000000E-01	2.016000000000E-01	2.016000000000E-01
	O10	O	-4.392000000000E-01	-2.016000000000E-01	-2.016000000000E-01
	O11	O	-2.016000000000E-01	-2.016000000000E-01	-4.392000000000E-01
	O12	O	-2.016000000000E-01	-4.392000000000E-01	-2.016000000000E-01
	O13	O	2.985000000000E-01	-4.209000000000E-01	6.620000000000E-02
	O14	O	6.620000000000E-02	2.985000000000E-01	-4.209000000000E-01
	O15	O	-4.209000000000E-01	6.620000000000E-02	2.985000000000E-01
	O16	O	4.209000000000E-01	-2.985000000000E-01	-6.620000000000E-02
	O17	O	-2.985000000000E-01	-6.620000000000E-02	4.209000000000E-01
	O18	O	-6.620000000000E-02	4.209000000000E-01	-2.985000000000E-01
	O19	O	-2.985000000000E-01	4.209000000000E-01	-6.620000000000E-02
	O20	O	-6.620000000000E-02	-2.985000000000E-01	4.209000000000E-01
	O21	O	4.209000000000E-01	-6.620000000000E-02	-2.985000000000E-01
	O22	O	-4.209000000000E-01	2.985000000000E-01	6.620000000000E-02
	O23	O	2.985000000000E-01	6.620000000000E-02	-4.209000000000E-01
	O24	O	6.620000000000E-02	-4.209000000000E-01	2.985000000000E-01
	O25	O	1.874000000000E-01	3.974000000000E-01	-1.720000000000E-02
	O26	O	-1.720000000000E-02	1.874000000000E-01	3.974000000000E-01
	O27	O	3.974000000000E-01	-1.720000000000E-02	1.874000000000E-01
	O28	O	-3.974000000000E-01	-1.874000000000E-01	1.720000000000E-02
	O29	O	-1.874000000000E-01	1.720000000000E-02	-3.974000000000E-01
	O30	O	1.720000000000E-02	-3.974000000000E-01	-1.874000000000E-01
	O31	O	-1.874000000000E-01	-3.974000000000E-01	1.720000000000E-02
	O32	O	1.720000000000E-02	-1.874000000000E-01	-3.974000000000E-01
	O33	O	-3.974000000000E-01	1.720000000000E-02	-1.874000000000E-01
	O34	O	3.974000000000E-01	1.874000000000E-01	-1.720000000000E-02
	O35	O	1.874000000000E-01	-1.720000000000E-02	3.974000000000E-01
	O36	O	-1.720000000000E-02	3.974000000000E-01	1.874000000000E-01
	O37	O	1.771000000000E-01	-4.580000000000E-02	1.771000000000E-01
	O38	O	1.771000000000E-01	1.771000000000E-01	-4.580000000000E-02
	O39	O	-4.580000000000E-02	1.771000000000E-01	1.771000000000E-01
	O40	O	4.580000000000E-02	-1.771000000000E-01	-1.771000000000E-01
	O41	O	-1.771000000000E-01	-1.771000000000E-01	4.580000000000E-02
	O42	O	-1.771000000000E-01	4.580000000000E-02	-1.771000000000E-01
	O43	O	8.910000000000E-02	3.025000000000E-01	-2.005000000000E-01
	O44	O	-2.005000000000E-01	8.910000000000E-02	3.025000000000E-01
	O45	O	3.025000000000E-01	-2.005000000000E-01	8.910000000000E-02
	O46	O	-3.025000000000E-01	-8.910000000000E-02	2.005000000000E-01
	O47	O	-8.910000000000E-02	2.005000000000E-01	-3.025000000000E-01
	O48	O	2.005000000000E-01	-3.025000000000E-01	-8.910000000000E-02
	O49	O	-8.910000000000E-02	-3.025000000000E-01	2.005000000000E-01
	O50	O	2.005000000000E-01	-8.910000000000E-02	-3.025000000000E-01
	O51	O	-3.025000000000E-01	2.005000000000E-01	-8.910000000000E-02
	O52	O	3.025000000000E-01	8.910000000000E-02	-2.005000000000E-01
	O53	O	8.910000000000E-02	-2.005000000000E-01	3.025000000000E-01
	O54	O	-2.005000000000E-01	3.025000000000E-01	8.910000000000E-02
	O55	O	-6.400000000000E-03	2.855000000000E-01	-6.400000000000E-03
	O56	O	-6.400000000000E-03	-6.400000000000E-03	2.855000000000E-01
	O57	O	2.855000000000E-01	-6.400000000000E-03	-6.400000000000E-03
	O58	O	-2.855000000000E-01	6.400000000000E-03	6.400000000000E-03
	O59	O	6.400000000000E-03	6.400000000000E-03	-2.855000000000E-01
	O60	O	6.400000000000E-03	-2.855000000000E-01	6.400000000000E-03
	Si61	Si	2.669000000000E-01	4.490000000000E-01	8.630000000000E-02
	Si62	Si	8.630000000000E-02	2.669000000000E-01	4.490000000000E-01
	Si63	Si	4.490000000000E-01	8.630000000000E-02	2.669000000000E-01
	Si64	Si	-4.490000000000E-01	-2.669000000000E-01	-8.630000000000E-02
	Si65	Si	-2.669000000000E-01	-8.630000000000E-02	-4.490000000000E-01
	Si66	Si	-8.630000000000E-02	-4.490000000000E-01	-2.669000000000E-01
	Si67	Si	-2.669000000000E-01	-4.490000000000E-01	-8.630000000000E-02
	Si68	Si	-8.630000000000E-02	-2.669000000000E-01	-4.490000000000E-01
	Si69	Si	-4.490000000000E-01	-8.630000000000E-02	-2.669000000000E-01
	Si70	Si	4.490000000000E-01	2.669000000000E-01	8.630000000000E-02
	Si71	Si	2.669000000000E-01	8.630000000000E-02	4.490000000000E-01
	Si72	Si	8.630000000000E-02	4.490000000000E-01	2.669000000000E-01
	Si73	Si	1.119000000000E-01	2.906000000000E-01	-6.740000000000E-02
	Si74	Si	-6.740000000000E-02	1.119000000000E-01	2.906000000000E-01
	Si75	Si	2.906000000000E-01	-6.740000000000E-02	1.119000000000E-01
	Si76	Si	-2.906000000000E-01	-1.119000000000E-01	6.740000000000E-02
	Si77	Si	-1.119000000000E-01	6.740000000000E-02	-2.906000000000E-01
	Si78	Si	6.740000000000E-02	-2.906000000000E-01	-1.119000000000E-01
	Si79	Si	-1.119000000000E-01	-2.906000000000E-01	6.740000000000E-02
	Si80	Si	6.740000000000E-02	-1.119000000000E-01	-2.906000000000E-01
	Si81	Si	-2.906000000000E-01	6.740000000000E-02	-1.119000000000E-01
	Si82	Si	2.906000000000E-01	1.119000000000E-01	-6.740000000000E-02
	Si83	Si	1.119000000000E-01	-6.740000000000E-02	2.906000000000E-01
	Si84	Si	-6.740000000000E-02	2.906000000000E-01	1.119000000000E-01
	Si85	Si	3.056000000000E-01	-3.056000000000E-01	-3.084429125648E-18
	Si86	Si	6.716585677134E-17	3.056000000000E-01	-3.056000000000E-01
	Si87	Si	-3.056000000000E-01	8.326672684689E-17	3.056000000000E-01
	Si88	Si	-3.056000000000E-01	3.056000000000E-01	3.095022735608E-18
	Si89	Si	-6.716585677134E-17	-3.056000000000E-01	3.056000000000E-01
	Si90	Si	3.056000000000E-01	-8.326672684689E-17	-3.056000000000E-01
