data MTF
_chemical_name_common		'MTF'
_cell_length_a		15.94139954
_cell_length_b		15.94139954
_cell_length_c		7.24900000
_cell_angle_alpha		89.864096
_cell_angle_beta		90.135904
_cell_angle_gamma		35.157023
_space group_name_H-M_alt		'P 1'
_space_group_IT_number		1

loop_
	_atom_site_label
	_atom_site_type_symbol
	_atom_site_fract_x
	_atom_site_fract_y
	_atom_site_fract_z
	O1	O	4.164000000000E-01	-1.282000000000E-01	1.397000000000E-01
	O2	O	-1.282000000000E-01	4.164000000000E-01	-1.397000000000E-01
	O3	O	-4.164000000000E-01	1.282000000000E-01	-1.397000000000E-01
	O4	O	1.282000000000E-01	-4.164000000000E-01	1.397000000000E-01
	O5	O	2.333000000000E-01	1.389000000000E-01	2.399000000000E-01
	O6	O	1.389000000000E-01	2.333000000000E-01	-2.399000000000E-01
	O7	O	-2.333000000000E-01	-1.389000000000E-01	-2.399000000000E-01
	O8	O	-1.389000000000E-01	-2.333000000000E-01	2.399000000000E-01
	O9	O	4.529000000000E-01	-8.170000000000E-02	4.571000000000E-01
	O10	O	-8.170000000000E-02	4.529000000000E-01	-4.571000000000E-01
	O11	O	-4.529000000000E-01	8.170000000000E-02	-4.571000000000E-01
	O12	O	8.170000000000E-02	-4.529000000000E-01	4.571000000000E-01
	O13	O	2.325000000000E-01	-5.500000000000E-03	4.109000000000E-01
	O14	O	-5.500000000000E-03	2.325000000000E-01	-4.109000000000E-01
	O15	O	-2.325000000000E-01	5.500000000000E-03	-4.109000000000E-01
	O16	O	5.500000000000E-03	-2.325000000000E-01	4.109000000000E-01
	O17	O	3.890000000000E-01	3.890000000000E-01	0.000000000000E+00
	O18	O	-3.890000000000E-01	-3.890000000000E-01	0.000000000000E+00
	O19	O	-4.946000000000E-01	1.756000000000E-01	2.077000000000E-01
	O20	O	1.756000000000E-01	-4.946000000000E-01	-2.077000000000E-01
	O21	O	4.946000000000E-01	-1.756000000000E-01	-2.077000000000E-01
	O22	O	-1.756000000000E-01	4.946000000000E-01	2.077000000000E-01
	O23	O	-3.384000000000E-01	1.776000000000E-01	1.056000000000E-01
	O24	O	1.776000000000E-01	-3.384000000000E-01	-1.056000000000E-01
	O25	O	3.384000000000E-01	-1.776000000000E-01	-1.056000000000E-01
	O26	O	-1.776000000000E-01	3.384000000000E-01	1.056000000000E-01
	O27	O	1.585000000000E-01	-1.585000000000E-01	-8.070000000000E-02
	O28	O	-1.585000000000E-01	1.585000000000E-01	8.070000000000E-02
	O29	O	6.760000000000E-02	6.760000000000E-02	0.000000000000E+00
	O30	O	-6.760000000000E-02	-6.760000000000E-02	0.000000000000E+00
	O31	O	1.218000000000E-01	-1.660000000000E-02	-3.432000000000E-01
	O32	O	-1.660000000000E-02	1.218000000000E-01	3.432000000000E-01
	O33	O	-1.218000000000E-01	1.660000000000E-02	3.432000000000E-01
	O34	O	1.660000000000E-02	-1.218000000000E-01	-3.432000000000E-01
	O35	O	3.219000000000E-01	2.161000000000E-01	3.450000000000E-01
	O36	O	2.161000000000E-01	3.219000000000E-01	-3.450000000000E-01
	O37	O	-3.219000000000E-01	-2.161000000000E-01	-3.450000000000E-01
	O38	O	-2.161000000000E-01	-3.219000000000E-01	3.450000000000E-01
	O39	O	-4.158000000000E-01	-4.640000000000E-02	2.551000000000E-01
	O40	O	-4.640000000000E-02	-4.158000000000E-01	-2.551000000000E-01
	O41	O	4.158000000000E-01	4.640000000000E-02	-2.551000000000E-01
	O42	O	4.640000000000E-02	4.158000000000E-01	2.551000000000E-01
	O43	O	2.492000000000E-01	2.492000000000E-01	0.000000000000E+00
	O44	O	-2.492000000000E-01	-2.492000000000E-01	0.000000000000E+00
	Si45	Si	1.723000000000E-01	-7.170000000000E-02	-1.322000000000E-01
	Si46	Si	-7.170000000000E-02	1.723000000000E-01	1.322000000000E-01
	Si47	Si	-1.723000000000E-01	7.170000000000E-02	1.322000000000E-01
	Si48	Si	7.170000000000E-02	-1.723000000000E-01	-1.322000000000E-01
	Si49	Si	3.339000000000E-01	-1.950000000000E-02	3.123000000000E-01
	Si50	Si	-1.950000000000E-02	3.339000000000E-01	-3.123000000000E-01
	Si51	Si	-3.339000000000E-01	1.950000000000E-02	-3.123000000000E-01
	Si52	Si	1.950000000000E-02	-3.339000000000E-01	3.123000000000E-01
	Si53	Si	-4.650000000000E-01	2.170000000000E-01	4.330000000000E-02
	Si54	Si	2.170000000000E-01	-4.650000000000E-01	-4.330000000000E-02
	Si55	Si	4.650000000000E-01	-2.170000000000E-01	-4.330000000000E-02
	Si56	Si	-2.170000000000E-01	4.650000000000E-01	4.330000000000E-02
	Si57	Si	4.903000000000E-01	1.067000000000E-01	3.379000000000E-01
	Si58	Si	1.067000000000E-01	4.903000000000E-01	-3.379000000000E-01
	Si59	Si	-4.903000000000E-01	-1.067000000000E-01	-3.379000000000E-01
	Si60	Si	-1.067000000000E-01	-4.903000000000E-01	3.379000000000E-01
	Si61	Si	2.124000000000E-01	2.554000000000E-01	2.104000000000E-01
	Si62	Si	2.554000000000E-01	2.124000000000E-01	-2.104000000000E-01
	Si63	Si	-2.124000000000E-01	-2.554000000000E-01	-2.104000000000E-01
	Si64	Si	-2.554000000000E-01	-2.124000000000E-01	2.104000000000E-01
	Si65	Si	8.330000000000E-02	8.330000000000E-02	-5.000000000000E-01
	Si66	Si	-8.330000000000E-02	-8.330000000000E-02	-5.000000000000E-01
