data MTW
_chemical_name_common		'MTW'
_cell_length_a		13.04348726
_cell_length_b		13.04348726
_cell_length_c		24.23400000
_cell_angle_alpha		71.099236
_cell_angle_beta		108.900764
_cell_angle_gamma		156.752979
_space group_name_H-M_alt		'P 1'
_space_group_IT_number		1

loop_
	_atom_site_label
	_atom_site_type_symbol
	_atom_site_fract_x
	_atom_site_fract_y
	_atom_site_fract_z
	O1	O	4.500000000000E-03	-4.500000000000E-03	6.565000000000E-02
	O2	O	-4.500000000000E-03	4.500000000000E-03	-6.565000000000E-02
	O3	O	-1.541000000000E-01	-3.457000000000E-01	1.210500000000E-01
	O4	O	-3.457000000000E-01	-1.541000000000E-01	-1.210500000000E-01
	O5	O	1.541000000000E-01	3.457000000000E-01	-1.210500000000E-01
	O6	O	3.457000000000E-01	1.541000000000E-01	1.210500000000E-01
	O7	O	8.760000000000E-02	-8.760000000000E-02	2.450000000000E-02
	O8	O	-8.760000000000E-02	8.760000000000E-02	-2.450000000000E-02
	O9	O	3.326000000000E-01	1.674000000000E-01	-7.120000000000E-02
	O10	O	1.674000000000E-01	3.326000000000E-01	7.120000000000E-02
	O11	O	-3.326000000000E-01	-1.674000000000E-01	7.120000000000E-02
	O12	O	-1.674000000000E-01	-3.326000000000E-01	-7.120000000000E-02
	O13	O	3.440000000000E-01	-3.440000000000E-01	-2.145000000000E-01
	O14	O	-3.440000000000E-01	3.440000000000E-01	2.145000000000E-01
	O15	O	3.153000000000E-01	-3.153000000000E-01	-1.202500000000E-01
	O16	O	-3.153000000000E-01	3.153000000000E-01	1.202500000000E-01
	O17	O	3.434000000000E-01	-3.434000000000E-01	1.039500000000E-01
	O18	O	-3.434000000000E-01	3.434000000000E-01	-1.039500000000E-01
	O19	O	3.374000000000E-01	-3.374000000000E-01	-6.500000000000E-03
	O20	O	-3.374000000000E-01	3.374000000000E-01	6.500000000000E-03
	O21	O	7.000000000000E-04	4.991000000000E-01	-7.425000000000E-02
	O22	O	4.991000000000E-01	7.000000000000E-04	7.425000000000E-02
	O23	O	-7.000000000000E-04	-4.991000000000E-01	7.425000000000E-02
	O24	O	-4.991000000000E-01	-7.000000000000E-04	-7.425000000000E-02
	O25	O	2.838000000000E-01	-2.838000000000E-01	1.739000000000E-01
	O26	O	-2.838000000000E-01	2.838000000000E-01	-1.739000000000E-01
	O27	O	3.650196481841E-17	-5.000000000000E-01	2.500000000000E-01
	O28	O	-5.000000000000E-01	6.749999136074E-17	2.500000000000E-01
	Si29	Si	7.100000000000E-02	-7.100000000000E-02	8.300000000000E-02
	Si30	Si	-7.100000000000E-02	7.100000000000E-02	-8.300000000000E-02
	Si31	Si	6.210000000000E-02	-6.210000000000E-02	-4.585000000000E-02
	Si32	Si	-6.210000000000E-02	6.210000000000E-02	4.585000000000E-02
	Si33	Si	3.671000000000E-01	-3.671000000000E-01	-1.440500000000E-01
	Si34	Si	-3.671000000000E-01	3.671000000000E-01	1.440500000000E-01
	Si35	Si	3.789000000000E-01	-3.789000000000E-01	5.995000000000E-02
	Si36	Si	-3.789000000000E-01	3.789000000000E-01	-5.995000000000E-02
	Si37	Si	2.885000000000E-01	-2.885000000000E-01	-6.875000000000E-02
	Si38	Si	-2.885000000000E-01	2.885000000000E-01	6.875000000000E-02
	Si39	Si	2.813000000000E-01	-2.813000000000E-01	1.067000000000E-01
	Si40	Si	-2.813000000000E-01	2.813000000000E-01	-1.067000000000E-01
	Si41	Si	2.818000000000E-01	-2.818000000000E-01	-2.604500000000E-01
	Si42	Si	-2.818000000000E-01	2.818000000000E-01	2.604500000000E-01
	O43	O	-3.326000000000E-01	-1.674000000000E-01	-4.288000000000E-01
	O44	O	4.991000000000E-01	7.000000000001E-04	-4.257500000000E-01
	O45	O	3.457000000000E-01	1.541000000000E-01	-3.789500000000E-01
	O46	O	-7.000000000000E-04	-4.991000000000E-01	-4.257500000000E-01
	O47	O	-1.674000000000E-01	-3.326000000000E-01	4.288000000000E-01
	O48	O	-4.991000000000E-01	-7.000000000000E-04	4.257500000000E-01
	O49	O	-4.500000000000E-03	4.500000000000E-03	4.343500000000E-01
	O50	O	2.838000000000E-01	-2.838000000000E-01	-3.261000000000E-01
	O51	O	3.440000000000E-01	-3.440000000000E-01	2.855000000000E-01
	O52	O	-2.838000000000E-01	2.838000000000E-01	3.261000000000E-01
	O53	O	8.760000000000E-02	-8.760000000000E-02	-4.755000000000E-01
	O54	O	8.839812545192E-17	5.000000000000E-01	-2.500000000000E-01
	O55	O	-3.440000000000E-01	3.440000000000E-01	-2.855000000000E-01
	O56	O	5.000000000000E-01	1.888947678335E-18	-2.500000000000E-01
	O57	O	-3.457000000000E-01	-1.541000000000E-01	3.789500000000E-01
	Si58	Si	7.100000000000E-02	-7.100000000000E-02	-4.170000000000E-01
	O59	O	3.153000000000E-01	-3.153000000000E-01	3.797500000000E-01
	Si60	Si	-7.100000000000E-02	7.100000000000E-02	4.170000000000E-01
	O61	O	-8.760000000000E-02	8.760000000000E-02	4.755000000000E-01
	Si62	Si	6.210000000000E-02	-6.210000000000E-02	4.541500000000E-01
	O63	O	-3.153000000000E-01	3.153000000000E-01	-3.797500000000E-01
	Si64	Si	-6.210000000000E-02	6.210000000000E-02	-4.541500000000E-01
	O65	O	4.500000000000E-03	-4.500000000000E-03	-4.343500000000E-01
	Si66	Si	3.671000000000E-01	-3.671000000000E-01	3.559500000000E-01
	O67	O	3.434000000000E-01	-3.434000000000E-01	-3.960500000000E-01
	Si68	Si	-3.671000000000E-01	3.671000000000E-01	-3.559500000000E-01
	O69	O	3.326000000000E-01	1.674000000000E-01	4.288000000000E-01
	Si70	Si	3.789000000000E-01	-3.789000000000E-01	-4.400500000000E-01
	O71	O	-3.434000000000E-01	3.434000000000E-01	3.960500000000E-01
	Si72	Si	-3.789000000000E-01	3.789000000000E-01	4.400500000000E-01
	O73	O	1.541000000000E-01	3.457000000000E-01	3.789500000000E-01
	Si74	Si	2.885000000000E-01	-2.885000000000E-01	4.312500000000E-01
	O75	O	3.374000000000E-01	-3.374000000000E-01	4.935000000000E-01
	Si76	Si	-2.885000000000E-01	2.885000000000E-01	-4.312500000000E-01
	O77	O	1.674000000000E-01	3.326000000000E-01	-4.288000000000E-01
	Si78	Si	2.813000000000E-01	-2.813000000000E-01	-3.933000000000E-01
	O79	O	-3.374000000000E-01	3.374000000000E-01	-4.935000000000E-01
	Si80	Si	-2.813000000000E-01	2.813000000000E-01	3.933000000000E-01
	O81	O	-1.541000000000E-01	-3.457000000000E-01	-3.789500000000E-01
	Si82	Si	2.818000000000E-01	-2.818000000000E-01	2.395500000000E-01
	O83	O	6.999999999999E-04	4.991000000000E-01	4.257500000000E-01
	Si84	Si	-2.818000000000E-01	2.818000000000E-01	-2.395500000000E-01
