data NAB
_chemical_name_common		'NAB'
_cell_length_a		15.75606426
_cell_length_b		15.75606426
_cell_length_c		15.75606426
_cell_angle_alpha		125.747665
_cell_angle_beta		125.747665
_cell_angle_gamma		80.303267
_space group_name_H-M_alt		'P 1'
_space_group_IT_number		1

loop_
	_atom_site_label
	_atom_site_type_symbol
	_atom_site_fract_x
	_atom_site_fract_y
	_atom_site_fract_z
	O1	O	1.301500000000E-01	3.890000000000E-02	9.125000000000E-02
	O2	O	-5.235000000000E-02	3.890000000000E-02	-9.125000000000E-02
	O3	O	-3.890000000000E-02	-1.301500000000E-01	-9.125000000000E-02
	O4	O	-3.890000000000E-02	5.235000000000E-02	9.125000000000E-02
	O5	O	-1.318000000000E-01	-1.318000000000E-01	0.000000000000E+00
	O6	O	1.318000000000E-01	1.318000000000E-01	0.000000000000E+00
	O7	O	-2.168500000000E-01	3.315000000000E-02	6.630000000000E-02
	O8	O	-3.315000000000E-02	-2.831500000000E-01	-6.630000000000E-02
	O9	O	-2.168500000000E-01	-2.831500000000E-01	2.500000000000E-01
	O10	O	-3.315000000000E-02	3.315000000000E-02	2.500000000000E-01
	Si11	Si	0.000000000000E+00	0.000000000000E+00	0.000000000000E+00
	Si12	Si	-1.055000000000E-01	-2.200000000000E-03	1.033000000000E-01
	Si13	Si	-1.055000000000E-01	-2.088000000000E-01	-1.033000000000E-01
	Si14	Si	2.200000000000E-03	1.055000000000E-01	-1.033000000000E-01
	Si15	Si	2.088000000000E-01	1.055000000000E-01	1.033000000000E-01
	O16	O	4.476500000000E-01	-4.611000000000E-01	4.087500000000E-01
	O17	O	1.301500000000E-01	-4.611000000000E-01	9.125000000000E-02
	O18	O	-3.890000000000E-02	-1.301500000000E-01	4.087500000000E-01
	O19	O	-3.890000000000E-02	3.698500000000E-01	-9.125000000000E-02
	O20	O	-3.890000000000E-02	3.698500000000E-01	4.087500000000E-01
	O21	O	4.611000000000E-01	-1.301500000000E-01	-9.125000000000E-02
	O22	O	4.611000000000E-01	-1.301500000000E-01	4.087500000000E-01
	O23	O	4.611000000000E-01	3.698500000000E-01	-9.125000000000E-02
	O24	O	4.611000000000E-01	3.698500000000E-01	4.087500000000E-01
	O25	O	1.301500000000E-01	-4.611000000000E-01	-4.087500000000E-01
	O26	O	-3.890000000000E-02	5.235000000000E-02	-4.087500000000E-01
	O27	O	-3.890000000000E-02	-4.476500000000E-01	9.125000000000E-02
	O28	O	-3.890000000000E-02	-4.476500000000E-01	-4.087500000000E-01
	O29	O	4.611000000000E-01	5.235000000000E-02	9.125000000000E-02
	O30	O	4.611000000000E-01	5.235000000000E-02	-4.087500000000E-01
	O31	O	4.611000000000E-01	-4.476500000000E-01	9.125000000000E-02
	O32	O	4.611000000000E-01	-4.476500000000E-01	-4.087500000000E-01
	O33	O	-3.698500000000E-01	3.890000000000E-02	9.125000000000E-02
	O34	O	-1.318000000000E-01	-1.318000000000E-01	5.000000000000E-01
	O35	O	-1.318000000000E-01	3.682000000000E-01	0.000000000000E+00
	O36	O	-1.318000000000E-01	3.682000000000E-01	5.000000000000E-01
	O37	O	3.682000000000E-01	-1.318000000000E-01	0.000000000000E+00
	O38	O	3.682000000000E-01	-1.318000000000E-01	5.000000000000E-01
	O39	O	3.682000000000E-01	3.682000000000E-01	0.000000000000E+00
	O40	O	3.682000000000E-01	3.682000000000E-01	5.000000000000E-01
	O41	O	-3.698500000000E-01	3.890000000000E-02	-4.087500000000E-01
	O42	O	1.318000000000E-01	1.318000000000E-01	5.000000000000E-01
	O43	O	1.318000000000E-01	-3.682000000000E-01	0.000000000000E+00
	O44	O	1.318000000000E-01	-3.682000000000E-01	5.000000000000E-01
	O45	O	-3.682000000000E-01	1.318000000000E-01	0.000000000000E+00
	O46	O	-3.682000000000E-01	1.318000000000E-01	5.000000000000E-01
	O47	O	-3.682000000000E-01	-3.682000000000E-01	0.000000000000E+00
	O48	O	-3.682000000000E-01	-3.682000000000E-01	5.000000000000E-01
	O49	O	-3.698500000000E-01	-4.611000000000E-01	9.125000000000E-02
	O50	O	-2.168500000000E-01	3.315000000000E-02	-4.337000000000E-01
	O51	O	-2.168500000000E-01	-4.668500000000E-01	6.630000000000E-02
	O52	O	-2.168500000000E-01	-4.668500000000E-01	-4.337000000000E-01
	O53	O	2.831500000000E-01	3.315000000000E-02	6.630000000000E-02
	O54	O	2.831500000000E-01	3.315000000000E-02	-4.337000000000E-01
	O55	O	2.831500000000E-01	-4.668500000000E-01	6.630000000000E-02
	O56	O	2.831500000000E-01	-4.668500000000E-01	-4.337000000000E-01
	O57	O	-3.698500000000E-01	-4.611000000000E-01	-4.087500000000E-01
	O58	O	-3.315000000000E-02	-2.831500000000E-01	4.337000000000E-01
	O59	O	-3.315000000000E-02	2.168500000000E-01	-6.630000000000E-02
	O60	O	-3.315000000000E-02	2.168500000000E-01	4.337000000000E-01
	O61	O	4.668500000000E-01	-2.831500000000E-01	-6.630000000000E-02
	O62	O	4.668500000000E-01	-2.831500000000E-01	4.337000000000E-01
	O63	O	4.668500000000E-01	2.168500000000E-01	-6.630000000000E-02
	O64	O	4.668500000000E-01	2.168500000000E-01	4.337000000000E-01
	O65	O	1.301500000000E-01	3.890000000000E-02	-4.087500000000E-01
	O66	O	-2.168500000000E-01	-2.831500000000E-01	-2.500000000000E-01
	O67	O	-2.168500000000E-01	2.168500000000E-01	2.500000000000E-01
	O68	O	-2.168500000000E-01	2.168500000000E-01	-2.500000000000E-01
	O69	O	2.831500000000E-01	-2.831500000000E-01	2.500000000000E-01
	O70	O	2.831500000000E-01	-2.831500000000E-01	-2.500000000000E-01
	O71	O	2.831500000000E-01	2.168500000000E-01	2.500000000000E-01
	O72	O	2.831500000000E-01	2.168500000000E-01	-2.500000000000E-01
	O73	O	-5.235000000000E-02	3.890000000000E-02	4.087500000000E-01
	O74	O	-3.315000000000E-02	3.315000000000E-02	-2.500000000000E-01
	O75	O	-3.315000000000E-02	-4.668500000000E-01	2.500000000000E-01
	O76	O	-3.315000000000E-02	-4.668500000000E-01	-2.500000000000E-01
	O77	O	4.668500000000E-01	3.315000000000E-02	2.500000000000E-01
	O78	O	4.668500000000E-01	3.315000000000E-02	-2.500000000000E-01
	O79	O	4.668500000000E-01	-4.668500000000E-01	2.500000000000E-01
	O80	O	4.668500000000E-01	-4.668500000000E-01	-2.500000000000E-01
	O81	O	-5.235000000000E-02	-4.611000000000E-01	-9.125000000000E-02
	Si82	Si	2.775557561563E-17	0.000000000000E+00	5.000000000000E-01
	Si83	Si	-2.775557561563E-17	5.000000000000E-01	0.000000000000E+00
	Si84	Si	0.000000000000E+00	5.000000000000E-01	5.000000000000E-01
	Si85	Si	5.000000000000E-01	-5.551115123126E-17	0.000000000000E+00
	Si86	Si	5.000000000000E-01	0.000000000000E+00	5.000000000000E-01
	Si87	Si	5.000000000000E-01	5.000000000000E-01	0.000000000000E+00
	Si88	Si	5.000000000000E-01	5.000000000000E-01	5.000000000000E-01
	O89	O	-5.235000000000E-02	-4.611000000000E-01	4.087500000000E-01
	Si90	Si	-1.055000000000E-01	-2.200000000000E-03	-3.967000000000E-01
	Si91	Si	-1.055000000000E-01	4.978000000000E-01	1.033000000000E-01
	Si92	Si	-1.055000000000E-01	4.978000000000E-01	-3.967000000000E-01
	Si93	Si	3.945000000000E-01	-2.200000000000E-03	1.033000000000E-01
	Si94	Si	3.945000000000E-01	-2.200000000000E-03	-3.967000000000E-01
	Si95	Si	3.945000000000E-01	4.978000000000E-01	1.033000000000E-01
	Si96	Si	3.945000000000E-01	4.978000000000E-01	-3.967000000000E-01
	O97	O	4.476500000000E-01	3.890000000000E-02	-9.125000000000E-02
	Si98	Si	-1.055000000000E-01	-2.088000000000E-01	3.967000000000E-01
	Si99	Si	-1.055000000000E-01	2.912000000000E-01	-1.033000000000E-01
	Si100	Si	-1.055000000000E-01	2.912000000000E-01	3.967000000000E-01
	Si101	Si	3.945000000000E-01	-2.088000000000E-01	-1.033000000000E-01
	Si102	Si	3.945000000000E-01	-2.088000000000E-01	3.967000000000E-01
	Si103	Si	3.945000000000E-01	2.912000000000E-01	-1.033000000000E-01
	Si104	Si	3.945000000000E-01	2.912000000000E-01	3.967000000000E-01
	O105	O	4.476500000000E-01	3.890000000000E-02	4.087500000000E-01
	Si106	Si	2.200000000000E-03	1.055000000000E-01	3.967000000000E-01
	Si107	Si	2.200000000000E-03	-3.945000000000E-01	-1.033000000000E-01
	Si108	Si	2.200000000000E-03	-3.945000000000E-01	3.967000000000E-01
	Si109	Si	-4.978000000000E-01	1.055000000000E-01	-1.033000000000E-01
	Si110	Si	-4.978000000000E-01	1.055000000000E-01	3.967000000000E-01
	Si111	Si	-4.978000000000E-01	-3.945000000000E-01	-1.033000000000E-01
	Si112	Si	-4.978000000000E-01	-3.945000000000E-01	3.967000000000E-01
	O113	O	4.476500000000E-01	-4.611000000000E-01	-9.125000000000E-02
	Si114	Si	2.088000000000E-01	1.055000000000E-01	-3.967000000000E-01
	Si115	Si	2.088000000000E-01	-3.945000000000E-01	1.033000000000E-01
	Si116	Si	2.088000000000E-01	-3.945000000000E-01	-3.967000000000E-01
	Si117	Si	-2.912000000000E-01	1.055000000000E-01	1.033000000000E-01
	Si118	Si	-2.912000000000E-01	1.055000000000E-01	-3.967000000000E-01
	Si119	Si	-2.912000000000E-01	-3.945000000000E-01	1.033000000000E-01
	Si120	Si	-2.912000000000E-01	-3.945000000000E-01	-3.967000000000E-01
