data NPT
_chemical_name_common		'NPT'
_cell_length_a		13.88300000
_cell_length_b		13.88300000
_cell_length_c		13.88300000
_cell_angle_alpha		90.000000
_cell_angle_beta		90.000000
_cell_angle_gamma		90.000000
_space group_name_H-M_alt		'P 1'
_space_group_IT_number		1

loop_
	_atom_site_label
	_atom_site_type_symbol
	_atom_site_fract_x
	_atom_site_fract_y
	_atom_site_fract_z
	O1	O	2.760000000000E-01	2.760000000000E-01	5.000000000000E-01
	O2	O	-2.760000000000E-01	-2.760000000000E-01	5.000000000000E-01
	O3	O	2.760000000000E-01	-2.760000000000E-01	5.000000000000E-01
	O4	O	-2.760000000000E-01	2.760000000000E-01	5.000000000000E-01
	O5	O	5.000000000000E-01	2.760000000000E-01	2.760000000000E-01
	O6	O	2.760000000000E-01	5.000000000000E-01	2.760000000000E-01
	O7	O	5.000000000000E-01	-2.760000000000E-01	2.760000000000E-01
	O8	O	-2.760000000000E-01	5.000000000000E-01	-2.760000000000E-01
	O9	O	5.000000000000E-01	-2.760000000000E-01	-2.760000000000E-01
	O10	O	-2.760000000000E-01	5.000000000000E-01	2.760000000000E-01
	O11	O	5.000000000000E-01	2.760000000000E-01	-2.760000000000E-01
	O12	O	2.760000000000E-01	5.000000000000E-01	-2.760000000000E-01
	O13	O	3.348000000000E-01	2.019000000000E-01	3.348000000000E-01
	O14	O	-3.348000000000E-01	-2.019000000000E-01	3.348000000000E-01
	O15	O	3.348000000000E-01	-2.019000000000E-01	-3.348000000000E-01
	O16	O	-3.348000000000E-01	2.019000000000E-01	-3.348000000000E-01
	O17	O	3.348000000000E-01	3.348000000000E-01	2.019000000000E-01
	O18	O	2.019000000000E-01	3.348000000000E-01	3.348000000000E-01
	O19	O	-3.348000000000E-01	-3.348000000000E-01	2.019000000000E-01
	O20	O	-2.019000000000E-01	3.348000000000E-01	-3.348000000000E-01
	O21	O	3.348000000000E-01	-3.348000000000E-01	-2.019000000000E-01
	O22	O	-2.019000000000E-01	-3.348000000000E-01	3.348000000000E-01
	O23	O	-3.348000000000E-01	3.348000000000E-01	-2.019000000000E-01
	O24	O	2.019000000000E-01	-3.348000000000E-01	-3.348000000000E-01
	O25	O	-2.019000000000E-01	-3.348000000000E-01	-3.348000000000E-01
	O26	O	2.019000000000E-01	3.348000000000E-01	-3.348000000000E-01
	O27	O	2.019000000000E-01	-3.348000000000E-01	3.348000000000E-01
	O28	O	-2.019000000000E-01	3.348000000000E-01	3.348000000000E-01
	O29	O	-3.348000000000E-01	-3.348000000000E-01	-2.019000000000E-01
	O30	O	-3.348000000000E-01	-2.019000000000E-01	-3.348000000000E-01
	O31	O	3.348000000000E-01	3.348000000000E-01	-2.019000000000E-01
	O32	O	-3.348000000000E-01	2.019000000000E-01	3.348000000000E-01
	O33	O	3.348000000000E-01	-3.348000000000E-01	2.019000000000E-01
	O34	O	3.348000000000E-01	2.019000000000E-01	-3.348000000000E-01
	O35	O	-3.348000000000E-01	3.348000000000E-01	2.019000000000E-01
	O36	O	3.348000000000E-01	-2.019000000000E-01	3.348000000000E-01
	O37	O	1.618000000000E-01	1.618000000000E-01	4.056000000000E-01
	O38	O	-1.618000000000E-01	-1.618000000000E-01	4.056000000000E-01
	O39	O	1.618000000000E-01	-1.618000000000E-01	-4.056000000000E-01
	O40	O	-1.618000000000E-01	1.618000000000E-01	-4.056000000000E-01
	O41	O	4.056000000000E-01	1.618000000000E-01	1.618000000000E-01
	O42	O	1.618000000000E-01	4.056000000000E-01	1.618000000000E-01
	O43	O	-4.056000000000E-01	-1.618000000000E-01	1.618000000000E-01
	O44	O	-1.618000000000E-01	4.056000000000E-01	-1.618000000000E-01
	O45	O	4.056000000000E-01	-1.618000000000E-01	-1.618000000000E-01
	O46	O	-1.618000000000E-01	-4.056000000000E-01	1.618000000000E-01
	O47	O	-4.056000000000E-01	1.618000000000E-01	-1.618000000000E-01
	O48	O	1.618000000000E-01	-4.056000000000E-01	-1.618000000000E-01
	O49	O	-1.618000000000E-01	-1.618000000000E-01	-4.056000000000E-01
	O50	O	1.618000000000E-01	1.618000000000E-01	-4.056000000000E-01
	O51	O	1.618000000000E-01	-1.618000000000E-01	4.056000000000E-01
	O52	O	-1.618000000000E-01	1.618000000000E-01	4.056000000000E-01
	O53	O	-1.618000000000E-01	-4.056000000000E-01	-1.618000000000E-01
	O54	O	-4.056000000000E-01	-1.618000000000E-01	-1.618000000000E-01
	O55	O	1.618000000000E-01	4.056000000000E-01	-1.618000000000E-01
	O56	O	-4.056000000000E-01	1.618000000000E-01	1.618000000000E-01
	O57	O	1.618000000000E-01	-4.056000000000E-01	1.618000000000E-01
	O58	O	4.056000000000E-01	1.618000000000E-01	-1.618000000000E-01
	O59	O	-1.618000000000E-01	4.056000000000E-01	1.618000000000E-01
	O60	O	4.056000000000E-01	-1.618000000000E-01	1.618000000000E-01
	O61	O	1.344000000000E-01	0.000000000000E+00	5.000000000000E-01
	O62	O	-1.344000000000E-01	0.000000000000E+00	5.000000000000E-01
	O63	O	5.000000000000E-01	1.344000000000E-01	0.000000000000E+00
	O64	O	0.000000000000E+00	5.000000000000E-01	1.344000000000E-01
	O65	O	5.000000000000E-01	-1.344000000000E-01	0.000000000000E+00
	O66	O	0.000000000000E+00	5.000000000000E-01	-1.344000000000E-01
	O67	O	0.000000000000E+00	-1.344000000000E-01	5.000000000000E-01
	O68	O	0.000000000000E+00	1.344000000000E-01	5.000000000000E-01
	O69	O	-1.344000000000E-01	5.000000000000E-01	0.000000000000E+00
	O70	O	5.000000000000E-01	0.000000000000E+00	-1.344000000000E-01
	O71	O	1.344000000000E-01	5.000000000000E-01	0.000000000000E+00
	O72	O	5.000000000000E-01	0.000000000000E+00	1.344000000000E-01
	Si73	Si	2.435000000000E-01	2.435000000000E-01	3.933000000000E-01
	Si74	Si	-2.435000000000E-01	-2.435000000000E-01	3.933000000000E-01
	Si75	Si	2.435000000000E-01	-2.435000000000E-01	-3.933000000000E-01
	Si76	Si	-2.435000000000E-01	2.435000000000E-01	-3.933000000000E-01
	Si77	Si	3.933000000000E-01	2.435000000000E-01	2.435000000000E-01
	Si78	Si	2.435000000000E-01	3.933000000000E-01	2.435000000000E-01
	Si79	Si	-3.933000000000E-01	-2.435000000000E-01	2.435000000000E-01
	Si80	Si	-2.435000000000E-01	3.933000000000E-01	-2.435000000000E-01
	Si81	Si	3.933000000000E-01	-2.435000000000E-01	-2.435000000000E-01
	Si82	Si	-2.435000000000E-01	-3.933000000000E-01	2.435000000000E-01
	Si83	Si	-3.933000000000E-01	2.435000000000E-01	-2.435000000000E-01
	Si84	Si	2.435000000000E-01	-3.933000000000E-01	-2.435000000000E-01
	Si85	Si	-2.435000000000E-01	-2.435000000000E-01	-3.933000000000E-01
	Si86	Si	2.435000000000E-01	2.435000000000E-01	-3.933000000000E-01
	Si87	Si	2.435000000000E-01	-2.435000000000E-01	3.933000000000E-01
	Si88	Si	-2.435000000000E-01	2.435000000000E-01	3.933000000000E-01
	Si89	Si	-2.435000000000E-01	-3.933000000000E-01	-2.435000000000E-01
	Si90	Si	-3.933000000000E-01	-2.435000000000E-01	-2.435000000000E-01
	Si91	Si	2.435000000000E-01	3.933000000000E-01	-2.435000000000E-01
	Si92	Si	-3.933000000000E-01	2.435000000000E-01	2.435000000000E-01
	Si93	Si	2.435000000000E-01	-3.933000000000E-01	2.435000000000E-01
	Si94	Si	3.933000000000E-01	2.435000000000E-01	-2.435000000000E-01
	Si95	Si	-2.435000000000E-01	3.933000000000E-01	2.435000000000E-01
	Si96	Si	3.933000000000E-01	-2.435000000000E-01	2.435000000000E-01
	Si97	Si	1.139000000000E-01	1.139000000000E-01	5.000000000000E-01
	Si98	Si	-1.139000000000E-01	-1.139000000000E-01	5.000000000000E-01
	Si99	Si	1.139000000000E-01	-1.139000000000E-01	5.000000000000E-01
	Si100	Si	-1.139000000000E-01	1.139000000000E-01	5.000000000000E-01
	Si101	Si	5.000000000000E-01	1.139000000000E-01	1.139000000000E-01
	Si102	Si	1.139000000000E-01	5.000000000000E-01	1.139000000000E-01
	Si103	Si	5.000000000000E-01	-1.139000000000E-01	1.139000000000E-01
	Si104	Si	-1.139000000000E-01	5.000000000000E-01	-1.139000000000E-01
	Si105	Si	5.000000000000E-01	-1.139000000000E-01	-1.139000000000E-01
	Si106	Si	-1.139000000000E-01	5.000000000000E-01	1.139000000000E-01
	Si107	Si	5.000000000000E-01	1.139000000000E-01	-1.139000000000E-01
	Si108	Si	1.139000000000E-01	5.000000000000E-01	-1.139000000000E-01
