data OBW
_chemical_name_common		'OBW'
_cell_length_a		18.29310750
_cell_length_b		18.29310750
_cell_length_c		18.29310750
_cell_angle_alpha		135.294578
_cell_angle_beta		135.294578
_cell_angle_gamma		65.072835
_space group_name_H-M_alt		'P 1'
_space_group_IT_number		1

loop_
	_atom_site_label
	_atom_site_type_symbol
	_atom_site_fract_x
	_atom_site_fract_y
	_atom_site_fract_z
	O1	O	3.530000000000E-01	-1.470000000000E-01	5.000000000000E-01
	O2	O	-3.530000000000E-01	1.470000000000E-01	5.000000000000E-01
	O3	O	1.470000000000E-01	-3.530000000000E-01	5.000000000000E-01
	O4	O	-1.470000000000E-01	3.530000000000E-01	5.000000000000E-01
	O5	O	9.642469738226E-18	1.340000000000E-01	1.340000000000E-01
	O6	O	-1.891302221467E-17	-1.340000000000E-01	-1.340000000000E-01
	O7	O	-1.340000000000E-01	-4.986547252316E-17	-1.340000000000E-01
	O8	O	1.340000000000E-01	4.986547252316E-17	1.340000000000E-01
	O9	O	2.039000000000E-01	2.039000000000E-01	3.230000000000E-01
	O10	O	-1.191000000000E-01	-1.191000000000E-01	-3.230000000000E-01
	O11	O	-2.039000000000E-01	1.191000000000E-01	6.507532501868E-17
	O12	O	1.191000000000E-01	-2.039000000000E-01	-5.905170151046E-17
	O13	O	-2.039000000000E-01	-2.039000000000E-01	-3.230000000000E-01
	O14	O	1.191000000000E-01	1.191000000000E-01	3.230000000000E-01
	O15	O	-1.191000000000E-01	2.039000000000E-01	3.540550279205E-18
	O16	O	2.039000000000E-01	-1.191000000000E-01	-3.540550279205E-18
	O17	O	4.426000000000E-01	-3.156000000000E-01	4.306000000000E-01
	O18	O	2.538000000000E-01	1.200000000000E-02	-4.306000000000E-01
	O19	O	-4.426000000000E-01	-1.200000000000E-02	2.418000000000E-01
	O20	O	-2.538000000000E-01	3.156000000000E-01	-2.418000000000E-01
	O21	O	3.156000000000E-01	-4.426000000000E-01	-4.306000000000E-01
	O22	O	-1.200000000000E-02	-2.538000000000E-01	4.306000000000E-01
	O23	O	1.200000000000E-02	4.426000000000E-01	-2.418000000000E-01
	O24	O	-3.156000000000E-01	2.538000000000E-01	2.418000000000E-01
	O25	O	-4.426000000000E-01	3.156000000000E-01	-4.306000000000E-01
	O26	O	-2.538000000000E-01	-1.200000000000E-02	4.306000000000E-01
	O27	O	4.426000000000E-01	1.200000000000E-02	-2.418000000000E-01
	O28	O	2.538000000000E-01	-3.156000000000E-01	2.418000000000E-01
	O29	O	-3.156000000000E-01	4.426000000000E-01	4.306000000000E-01
	O30	O	1.200000000000E-02	2.538000000000E-01	-4.306000000000E-01
	O31	O	-1.200000000000E-02	-4.426000000000E-01	2.418000000000E-01
	O32	O	3.156000000000E-01	-2.538000000000E-01	-2.418000000000E-01
	O33	O	2.804000000000E-01	-3.139000000000E-01	4.057000000000E-01
	O34	O	2.804000000000E-01	-1.253000000000E-01	-4.057000000000E-01
	O35	O	-2.804000000000E-01	1.253000000000E-01	4.057000000000E-01
	O36	O	-2.804000000000E-01	3.139000000000E-01	-4.057000000000E-01
	O37	O	3.139000000000E-01	-2.804000000000E-01	-4.057000000000E-01
	O38	O	1.253000000000E-01	-2.804000000000E-01	4.057000000000E-01
	O39	O	-1.253000000000E-01	2.804000000000E-01	-4.057000000000E-01
	O40	O	-3.139000000000E-01	2.804000000000E-01	4.057000000000E-01
	O41	O	4.008000000000E-01	-3.743000000000E-01	2.249000000000E-01
	O42	O	4.008000000000E-01	1.759000000000E-01	-2.249000000000E-01
	O43	O	-4.008000000000E-01	-1.759000000000E-01	2.249000000000E-01
	O44	O	-4.008000000000E-01	3.743000000000E-01	-2.249000000000E-01
	O45	O	3.743000000000E-01	-4.008000000000E-01	-2.249000000000E-01
	O46	O	-1.759000000000E-01	-4.008000000000E-01	2.249000000000E-01
	O47	O	1.759000000000E-01	4.008000000000E-01	-2.249000000000E-01
	O48	O	-3.743000000000E-01	4.008000000000E-01	2.249000000000E-01
	O49	O	2.748000000000E-01	4.082000000000E-01	-4.650000000000E-01
	O50	O	-1.268000000000E-01	-2.602000000000E-01	4.650000000000E-01
	O51	O	-2.748000000000E-01	2.602000000000E-01	1.334000000000E-01
	O52	O	1.268000000000E-01	-4.082000000000E-01	-1.334000000000E-01
	O53	O	-4.082000000000E-01	-2.748000000000E-01	4.650000000000E-01
	O54	O	2.602000000000E-01	1.268000000000E-01	-4.650000000000E-01
	O55	O	-2.602000000000E-01	2.748000000000E-01	-1.334000000000E-01
	O56	O	4.082000000000E-01	-1.268000000000E-01	1.334000000000E-01
	O57	O	-2.748000000000E-01	-4.082000000000E-01	4.650000000000E-01
	O58	O	1.268000000000E-01	2.602000000000E-01	-4.650000000000E-01
	O59	O	2.748000000000E-01	-2.602000000000E-01	-1.334000000000E-01
	O60	O	-1.268000000000E-01	4.082000000000E-01	1.334000000000E-01
	O61	O	4.082000000000E-01	2.748000000000E-01	-4.650000000000E-01
	O62	O	-2.602000000000E-01	-1.268000000000E-01	4.650000000000E-01
	O63	O	2.602000000000E-01	-2.748000000000E-01	1.334000000000E-01
	O64	O	-4.082000000000E-01	1.268000000000E-01	-1.334000000000E-01
	O65	O	-4.683000000000E-01	-4.683000000000E-01	3.284000000000E-01
	O66	O	2.033000000000E-01	2.033000000000E-01	-3.284000000000E-01
	O67	O	4.683000000000E-01	-2.033000000000E-01	5.913801812088E-18
	O68	O	-2.033000000000E-01	4.683000000000E-01	-5.913801812088E-18
	O69	O	4.683000000000E-01	4.683000000000E-01	-3.284000000000E-01
	O70	O	-2.033000000000E-01	-2.033000000000E-01	3.284000000000E-01
	O71	O	2.033000000000E-01	-4.683000000000E-01	5.913801812088E-18
	O72	O	-4.683000000000E-01	2.033000000000E-01	-5.913801812088E-18
	O73	O	2.754000000000E-01	2.754000000000E-01	-4.492000000000E-01
	O74	O	-2.754000000000E-01	-2.754000000000E-01	4.492000000000E-01
	O75	O	-2.754000000000E-01	2.754000000000E-01	-9.457618088214E-17
	O76	O	2.754000000000E-01	-2.754000000000E-01	9.457618088214E-17
	Si77	Si	4.919000000000E-01	-3.581000000000E-01	3.626000000000E-01
	Si78	Si	2.793000000000E-01	1.293000000000E-01	-3.626000000000E-01
	Si79	Si	-4.919000000000E-01	-1.293000000000E-01	1.500000000000E-01
	Si80	Si	-2.793000000000E-01	3.581000000000E-01	-1.500000000000E-01
	Si81	Si	3.581000000000E-01	-4.919000000000E-01	-3.626000000000E-01
	Si82	Si	-1.293000000000E-01	-2.793000000000E-01	3.626000000000E-01
	Si83	Si	1.293000000000E-01	4.919000000000E-01	-1.500000000000E-01
	Si84	Si	-3.581000000000E-01	2.793000000000E-01	1.500000000000E-01
	Si85	Si	-4.919000000000E-01	3.581000000000E-01	-3.626000000000E-01
	Si86	Si	-2.793000000000E-01	-1.293000000000E-01	3.626000000000E-01
	Si87	Si	4.919000000000E-01	1.293000000000E-01	-1.500000000000E-01
	Si88	Si	2.793000000000E-01	-3.581000000000E-01	1.500000000000E-01
	Si89	Si	-3.581000000000E-01	4.919000000000E-01	3.626000000000E-01
	Si90	Si	1.293000000000E-01	2.793000000000E-01	-3.626000000000E-01
	Si91	Si	-1.293000000000E-01	-4.919000000000E-01	1.500000000000E-01
	Si92	Si	3.581000000000E-01	-2.793000000000E-01	-1.500000000000E-01
	Si93	Si	-2.742000000000E-01	3.323000000000E-01	3.935000000000E-01
	Si94	Si	-6.120000000000E-02	3.323000000000E-01	-3.935000000000E-01
	Si95	Si	2.742000000000E-01	-3.323000000000E-01	-3.935000000000E-01
	Si96	Si	6.120000000000E-02	-3.323000000000E-01	3.935000000000E-01
	Si97	Si	-3.323000000000E-01	2.742000000000E-01	-3.935000000000E-01
	Si98	Si	-3.323000000000E-01	6.120000000000E-02	3.935000000000E-01
	Si99	Si	3.323000000000E-01	-2.742000000000E-01	3.935000000000E-01
	Si100	Si	3.323000000000E-01	-6.120000000000E-02	-3.935000000000E-01
	Si101	Si	2.910000000000E-01	2.910000000000E-01	4.860000000000E-01
	Si102	Si	-1.950000000000E-01	-1.950000000000E-01	-4.860000000000E-01
	Si103	Si	-2.910000000000E-01	1.950000000000E-01	3.499436480742E-18
	Si104	Si	1.950000000000E-01	-2.910000000000E-01	-3.499436480742E-18
	Si105	Si	-2.910000000000E-01	-2.910000000000E-01	-4.860000000000E-01
	Si106	Si	1.950000000000E-01	1.950000000000E-01	4.860000000000E-01
	Si107	Si	-1.950000000000E-01	2.910000000000E-01	3.499436480742E-18
	Si108	Si	2.910000000000E-01	-1.950000000000E-01	-3.499436480742E-18
	Si109	Si	1.137000000000E-01	1.137000000000E-01	2.274000000000E-01
	Si110	Si	-1.137000000000E-01	-1.137000000000E-01	-2.274000000000E-01
	Si111	Si	-1.137000000000E-01	1.137000000000E-01	-4.319776837640E-18
	Si112	Si	1.137000000000E-01	-1.137000000000E-01	4.319776837640E-18
	Si113	Si	-2.500000000000E-01	2.500000000000E-01	5.000000000000E-01
	Si114	Si	2.500000000000E-01	-2.500000000000E-01	5.000000000000E-01
