data OFF
_chemical_name_common		'OFF'
_cell_length_a		26.12600000
_cell_length_b		13.06300000
_cell_length_c		7.56500000
_cell_angle_alpha		90.000000
_cell_angle_beta		90.000000
_cell_angle_gamma		120.000000
_space group_name_H-M_alt		'P 1'
_space_group_IT_number		1

loop_
	_atom_site_label
	_atom_site_type_symbol
	_atom_site_fract_x
	_atom_site_fract_y
	_atom_site_fract_z
	O1	O	4.802500000000E-02	-9.605000000000E-02	2.244000000000E-01
	O2	O	4.802500000000E-02	1.921000000000E-01	2.244000000000E-01
	O3	O	-9.605000000000E-02	-9.605000000000E-02	2.244000000000E-01
	O4	O	4.802500000000E-02	-9.605000000000E-02	-2.244000000000E-01
	O5	O	4.802500000000E-02	1.921000000000E-01	-2.244000000000E-01
	O6	O	-9.605000000000E-02	-9.605000000000E-02	-2.244000000000E-01
	O7	O	-6.410000000000E-02	1.282000000000E-01	2.618000000000E-01
	O8	O	-6.410000000000E-02	-2.564000000000E-01	2.618000000000E-01
	O9	O	1.282000000000E-01	1.282000000000E-01	2.618000000000E-01
	O10	O	-6.410000000000E-02	1.282000000000E-01	-2.618000000000E-01
	O11	O	-6.410000000000E-02	-2.564000000000E-01	-2.618000000000E-01
	O12	O	1.282000000000E-01	1.282000000000E-01	-2.618000000000E-01
	O13	O	1.825000000000E-02	3.477000000000E-01	3.263000000000E-01
	O14	O	-1.738500000000E-01	-3.112000000000E-01	3.263000000000E-01
	O15	O	1.556000000000E-01	-3.650000000000E-02	3.263000000000E-01
	O16	O	-1.738500000000E-01	-3.650000000000E-02	-3.263000000000E-01
	O17	O	1.825000000000E-02	-3.112000000000E-01	-3.263000000000E-01
	O18	O	1.556000000000E-01	3.477000000000E-01	-3.263000000000E-01
	O19	O	1.556000000000E-01	3.477000000000E-01	3.263000000000E-01
	O20	O	1.825000000000E-02	-3.112000000000E-01	3.263000000000E-01
	O21	O	-1.738500000000E-01	-3.650000000000E-02	3.263000000000E-01
	O22	O	1.825000000000E-02	3.477000000000E-01	-3.263000000000E-01
	O23	O	1.556000000000E-01	-3.650000000000E-02	-3.263000000000E-01
	O24	O	-1.738500000000E-01	-3.112000000000E-01	-3.263000000000E-01
	O25	O	-2.500000000000E-03	2.679000000000E-01	0.000000000000E+00
	O26	O	-1.339500000000E-01	-2.729000000000E-01	0.000000000000E+00
	O27	O	1.364500000000E-01	5.000000000000E-03	0.000000000000E+00
	O28	O	-1.339500000000E-01	5.000000000000E-03	0.000000000000E+00
	O29	O	-2.500000000000E-03	-2.729000000000E-01	0.000000000000E+00
	O30	O	1.364500000000E-01	2.679000000000E-01	0.000000000000E+00
	O31	O	1.179500000000E-01	-2.359000000000E-01	-5.000000000000E-01
	O32	O	1.179500000000E-01	4.718000000000E-01	-5.000000000000E-01
	O33	O	-2.359000000000E-01	-2.359000000000E-01	-5.000000000000E-01
	O34	O	-2.689000000000E-01	-4.622000000000E-01	-5.000000000000E-01
	O35	O	-2.689000000000E-01	-7.560000000000E-02	-5.000000000000E-01
	O36	O	3.780000000000E-02	-4.622000000000E-01	-5.000000000000E-01
	Si37	Si	-1.000000000000E-04	2.340000000000E-01	2.032000000000E-01
	Si38	Si	-1.170000000000E-01	-2.342000000000E-01	2.032000000000E-01
	Si39	Si	1.171000000000E-01	2.000000000000E-04	2.032000000000E-01
	Si40	Si	-1.170000000000E-01	2.000000000001E-04	-2.032000000000E-01
	Si41	Si	-1.000000000000E-04	-2.342000000000E-01	-2.032000000000E-01
	Si42	Si	1.171000000000E-01	2.340000000000E-01	-2.032000000000E-01
	Si43	Si	1.171000000000E-01	2.340000000000E-01	2.032000000000E-01
	Si44	Si	-1.000000000000E-04	-2.342000000000E-01	2.032000000000E-01
	Si45	Si	-1.170000000000E-01	2.000000000001E-04	2.032000000000E-01
	Si46	Si	-1.000000000000E-04	2.340000000000E-01	-2.032000000000E-01
	Si47	Si	1.171000000000E-01	2.000000000000E-04	-2.032000000000E-01
	Si48	Si	-1.170000000000E-01	-2.342000000000E-01	-2.032000000000E-01
	Si49	Si	4.820000000000E-02	4.264000000000E-01	-5.000000000000E-01
	Si50	Si	-2.132000000000E-01	-3.300000000000E-01	-5.000000000000E-01
	Si51	Si	1.650000000000E-01	-9.640000000000E-02	-5.000000000000E-01
	Si52	Si	-2.132000000000E-01	-9.640000000000E-02	-5.000000000000E-01
	Si53	Si	4.820000000000E-02	-3.300000000000E-01	-5.000000000000E-01
	Si54	Si	1.650000000000E-01	4.264000000000E-01	-5.000000000000E-01
	O55	O	3.261500000000E-01	-3.112000000000E-01	3.263000000000E-01
	O56	O	3.660500000000E-01	5.000000000000E-03	0.000000000000E+00
	O57	O	-4.519750000000E-01	-9.605000000000E-02	-2.244000000000E-01
	O58	O	4.975000000000E-01	-2.729000000000E-01	0.000000000000E+00
	O59	O	-3.444000000000E-01	-3.650000000000E-02	3.263000000000E-01
	O60	O	-3.635500000000E-01	2.679000000000E-01	0.000000000000E+00
	O61	O	4.359000000000E-01	-2.564000000000E-01	2.618000000000E-01
	O62	O	-3.820500000000E-01	-2.359000000000E-01	-5.000000000000E-01
	O63	O	3.261500000000E-01	-3.650000000000E-02	-3.263000000000E-01
	O64	O	-3.820500000000E-01	4.718000000000E-01	-5.000000000000E-01
	O65	O	-4.519750000000E-01	-9.605000000000E-02	2.244000000000E-01
	O66	O	2.641000000000E-01	-2.359000000000E-01	-5.000000000000E-01
	O67	O	-4.817500000000E-01	-3.112000000000E-01	-3.263000000000E-01
	O68	O	2.311000000000E-01	-4.622000000000E-01	-5.000000000000E-01
	O69	O	-3.718000000000E-01	1.282000000000E-01	2.618000000000E-01
	O70	O	2.311000000000E-01	-7.560000000000E-02	-5.000000000000E-01
	O71	O	-3.444000000000E-01	3.477000000000E-01	-3.263000000000E-01
	O72	O	-4.622000000000E-01	-4.622000000000E-01	-5.000000000000E-01
	O73	O	-4.519750000000E-01	1.921000000000E-01	-2.244000000000E-01
	Si74	Si	4.999000000000E-01	2.340000000000E-01	2.032000000000E-01
	O75	O	-3.444000000000E-01	3.477000000000E-01	3.263000000000E-01
	Si76	Si	3.830000000000E-01	-2.342000000000E-01	2.032000000000E-01
	O77	O	4.359000000000E-01	1.282000000000E-01	-2.618000000000E-01
	Si78	Si	-3.829000000000E-01	2.000000000002E-04	2.032000000000E-01
	O79	O	-4.817500000000E-01	-3.112000000000E-01	3.263000000000E-01
	Si80	Si	3.830000000000E-01	1.999999999996E-04	-2.032000000000E-01
	O81	O	4.039500000000E-01	-9.605000000000E-02	2.244000000000E-01
	Si82	Si	4.999000000000E-01	-2.342000000000E-01	-2.032000000000E-01
	O83	O	3.261500000000E-01	-3.650000000000E-02	3.263000000000E-01
	Si84	Si	-3.829000000000E-01	2.340000000000E-01	-2.032000000000E-01
	O85	O	4.359000000000E-01	-2.564000000000E-01	-2.618000000000E-01
	Si86	Si	-3.829000000000E-01	2.340000000000E-01	2.032000000000E-01
	O87	O	-4.817500000000E-01	3.477000000000E-01	-3.263000000000E-01
	Si88	Si	4.999000000000E-01	-2.342000000000E-01	2.032000000000E-01
	O89	O	4.039500000000E-01	-9.605000000000E-02	-2.244000000000E-01
	Si90	Si	3.830000000000E-01	1.999999999996E-04	2.032000000000E-01
	O91	O	-3.444000000000E-01	-3.650000000000E-02	-3.263000000000E-01
	Si92	Si	4.999000000000E-01	2.340000000000E-01	-2.032000000000E-01
	O93	O	-3.718000000000E-01	1.282000000000E-01	-2.618000000000E-01
	Si94	Si	-3.829000000000E-01	2.000000000002E-04	-2.032000000000E-01
	O95	O	3.261500000000E-01	-3.112000000000E-01	-3.263000000000E-01
	Si96	Si	3.830000000000E-01	-2.342000000000E-01	-2.032000000000E-01
	O97	O	-4.519750000000E-01	1.921000000000E-01	2.244000000000E-01
	Si98	Si	-4.518000000000E-01	4.264000000000E-01	-5.000000000000E-01
	O99	O	4.975000000000E-01	2.679000000000E-01	0.000000000000E+00
	Si100	Si	2.868000000000E-01	-3.300000000000E-01	-5.000000000000E-01
	O101	O	-4.817500000000E-01	3.477000000000E-01	3.263000000000E-01
	Si102	Si	-3.350000000000E-01	-9.640000000000E-02	-5.000000000000E-01
	O103	O	3.660500000000E-01	-2.729000000000E-01	0.000000000000E+00
	Si104	Si	2.868000000000E-01	-9.640000000000E-02	-5.000000000000E-01
	O105	O	4.359000000000E-01	1.282000000000E-01	2.618000000000E-01
	Si106	Si	-4.518000000000E-01	-3.300000000000E-01	-5.000000000000E-01
	O107	O	-3.635500000000E-01	5.000000000000E-03	0.000000000000E+00
	Si108	Si	-3.350000000000E-01	4.264000000000E-01	-5.000000000000E-01
