data OSI
_chemical_name_common		'OSI'
_cell_length_a		26.69636485
_cell_length_b		13.34818242
_cell_length_c		13.34818242
_cell_angle_alpha		92.231617
_cell_angle_beta		92.231617
_cell_angle_gamma		157.238236
_space group_name_H-M_alt		'P 1'
_space_group_IT_number		1

loop_
	_atom_site_label
	_atom_site_type_symbol
	_atom_site_fract_x
	_atom_site_fract_y
	_atom_site_fract_z
	O1	O	-1.538500000000E-01	-3.077000000000E-01	3.846000000000E-01
	O2	O	-3.461500000000E-01	3.077000000000E-01	-3.846000000000E-01
	O3	O	-3.461500000000E-01	-3.077000000000E-01	6.388883031860E-17
	O4	O	-1.538500000000E-01	3.077000000000E-01	7.586881253890E-18
	O5	O	-3.240000000000E-02	6.480000000000E-02	-5.000000000000E-01
	O6	O	-2.176000000000E-01	4.352000000000E-01	-5.000000000000E-01
	O7	O	3.240000000000E-02	-4.352000000000E-01	1.296000000000E-01
	O8	O	-2.824000000000E-01	-6.480000000000E-02	-1.296000000000E-01
	O9	O	3.240000000000E-02	-6.480000000000E-02	-5.000000000000E-01
	O10	O	-2.824000000000E-01	-4.352000000000E-01	-5.000000000000E-01
	O11	O	-3.240000000000E-02	4.352000000000E-01	-1.296000000000E-01
	O12	O	-2.176000000000E-01	6.480000000000E-02	1.296000000000E-01
	O13	O	-2.142500000000E-01	-2.302000000000E-01	3.413000000000E-01
	O14	O	-2.857500000000E-01	2.302000000000E-01	-3.413000000000E-01
	O15	O	-2.857500000000E-01	-2.302000000000E-01	1.983000000000E-01
	O16	O	-2.142500000000E-01	2.302000000000E-01	-1.983000000000E-01
	O17	O	-3.849000000000E-01	4.285000000000E-01	-3.413000000000E-01
	O18	O	-1.151000000000E-01	-4.285000000000E-01	3.413000000000E-01
	O19	O	-3.849000000000E-01	-4.285000000000E-01	-1.983000000000E-01
	O20	O	-1.151000000000E-01	4.285000000000E-01	1.983000000000E-01
	O21	O	1.250000000000E-01	4.206000000000E-01	1.706000000000E-01
	O22	O	1.250000000000E-01	7.940000000000E-02	-1.706000000000E-01
	O23	O	-1.250000000000E-01	-7.940000000000E-02	1.706000000000E-01
	O24	O	-1.250000000000E-01	-4.206000000000E-01	-1.706000000000E-01
	O25	O	-2.103000000000E-01	-2.500000000000E-01	-1.706000000000E-01
	O26	O	-3.970000000000E-02	-2.500000000000E-01	1.706000000000E-01
	O27	O	3.970000000000E-02	2.500000000000E-01	-1.706000000000E-01
	O28	O	2.103000000000E-01	2.500000000000E-01	1.706000000000E-01
	O29	O	3.555000000000E-02	7.110000000000E-02	1.422000000000E-01
	O30	O	-3.555000000000E-02	-7.110000000000E-02	-1.422000000000E-01
	O31	O	-3.555000000000E-02	7.110000000000E-02	2.426960378474E-17
	O32	O	3.555000000000E-02	-7.110000000000E-02	-2.426960378474E-17
	Si33	Si	-1.707500000000E-01	-2.274000000000E-01	4.311000000000E-01
	Si34	Si	-3.292500000000E-01	2.274000000000E-01	-4.311000000000E-01
	Si35	Si	-3.292500000000E-01	-2.274000000000E-01	1.141000000000E-01
	Si36	Si	-1.707500000000E-01	2.274000000000E-01	-1.141000000000E-01
	Si37	Si	-3.863000000000E-01	3.415000000000E-01	-4.311000000000E-01
	Si38	Si	-1.137000000000E-01	-3.415000000000E-01	4.311000000000E-01
	Si39	Si	-3.863000000000E-01	-3.415000000000E-01	-1.141000000000E-01
	Si40	Si	-1.137000000000E-01	3.415000000000E-01	1.141000000000E-01
	Si41	Si	-1.161415869082E-18	1.209000000000E-01	1.209000000000E-01
	Si42	Si	1.934594233628E-18	-1.209000000000E-01	-1.209000000000E-01
	Si43	Si	-6.045000000000E-02	2.390233203354E-17	-1.209000000000E-01
	Si44	Si	6.045000000000E-02	-2.390233203354E-17	1.209000000000E-01
	Si45	Si	2.500000000000E-01	-2.796000000000E-01	2.204000000000E-01
	Si46	Si	2.500000000000E-01	2.796000000000E-01	-2.204000000000E-01
	Si47	Si	-3.602000000000E-01	-5.000000000000E-01	-2.204000000000E-01
	Si48	Si	-1.398000000000E-01	-5.000000000000E-01	2.204000000000E-01
	O49	O	1.538500000000E-01	3.077000000000E-01	-3.846000000000E-01
	O50	O	2.897000000000E-01	-2.500000000000E-01	-1.706000000000E-01
	O51	O	2.857500000000E-01	-2.302000000000E-01	3.413000000000E-01
	O52	O	4.603000000000E-01	-2.500000000000E-01	1.706000000000E-01
	O53	O	-4.676000000000E-01	-4.352000000000E-01	1.296000000000E-01
	O54	O	-4.603000000000E-01	2.500000000000E-01	-1.706000000000E-01
	O55	O	2.142500000000E-01	2.302000000000E-01	-3.413000000000E-01
	O56	O	-2.897000000000E-01	2.500000000000E-01	1.706000000000E-01
	O57	O	3.461500000000E-01	3.077000000000E-01	-1.565883693850E-16
	O58	O	-4.644500000000E-01	7.110000000000E-02	1.422000000000E-01
	O59	O	2.142500000000E-01	-2.302000000000E-01	1.983000000000E-01
	O60	O	4.644500000000E-01	-7.110000000000E-02	-1.422000000000E-01
	O61	O	2.176000000000E-01	-6.480000000000E-02	-1.296000000000E-01
	O62	O	4.644500000000E-01	7.110000000000E-02	2.687285327455E-17
	O63	O	2.857500000000E-01	2.302000000000E-01	-1.983000000000E-01
	O64	O	-4.644500000000E-01	-7.110000000000E-02	2.392189184694E-17
	O65	O	3.461500000000E-01	-3.077000000000E-01	3.846000000000E-01
	Si66	Si	3.292500000000E-01	-2.274000000000E-01	4.311000000000E-01
	O67	O	1.151000000000E-01	4.285000000000E-01	-3.413000000000E-01
	Si68	Si	1.707500000000E-01	2.274000000000E-01	-4.311000000000E-01
	O69	O	-4.676000000000E-01	-6.480000000000E-02	-5.000000000000E-01
	Si70	Si	1.707500000000E-01	-2.274000000000E-01	1.141000000000E-01
	O71	O	3.849000000000E-01	-4.285000000000E-01	3.413000000000E-01
	Si72	Si	3.292500000000E-01	2.274000000000E-01	-1.141000000000E-01
	O73	O	4.676000000000E-01	6.480000000000E-02	-5.000000000000E-01
	Si74	Si	1.137000000000E-01	3.415000000000E-01	-4.311000000000E-01
	O75	O	1.151000000000E-01	-4.285000000000E-01	-1.983000000000E-01
	Si76	Si	3.863000000000E-01	-3.415000000000E-01	4.311000000000E-01
	O77	O	2.176000000000E-01	-4.352000000000E-01	5.000000000000E-01
	Si78	Si	1.137000000000E-01	-3.415000000000E-01	-1.141000000000E-01
	O79	O	3.849000000000E-01	4.285000000000E-01	1.983000000000E-01
	Si80	Si	3.863000000000E-01	3.415000000000E-01	1.141000000000E-01
	O81	O	1.538500000000E-01	-3.077000000000E-01	1.199164585063E-16
	Si82	Si	5.000000000000E-01	1.209000000000E-01	1.209000000000E-01
	O83	O	-3.750000000000E-01	4.206000000000E-01	1.706000000000E-01
	Si84	Si	5.000000000000E-01	-1.209000000000E-01	-1.209000000000E-01
	O85	O	4.676000000000E-01	4.352000000000E-01	-1.296000000000E-01
	Si86	Si	4.395500000000E-01	6.259035908517E-17	-1.209000000000E-01
	O87	O	-3.750000000000E-01	7.940000000000E-02	-1.706000000000E-01
	Si88	Si	-4.395500000000E-01	9.404324768307E-17	1.209000000000E-01
	O89	O	2.824000000000E-01	4.352000000000E-01	-5.000000000000E-01
	Si90	Si	-2.500000000000E-01	-2.796000000000E-01	2.204000000000E-01
	O91	O	3.750000000000E-01	-7.940000000000E-02	1.706000000000E-01
	Si92	Si	-2.500000000000E-01	2.796000000000E-01	-2.204000000000E-01
	O93	O	2.824000000000E-01	6.480000000000E-02	1.296000000000E-01
	Si94	Si	1.398000000000E-01	-5.000000000000E-01	-2.204000000000E-01
	O95	O	3.750000000000E-01	-4.206000000000E-01	-1.706000000000E-01
	Si96	Si	3.602000000000E-01	5.000000000000E-01	2.204000000000E-01
