data OSO
_chemical_name_common		'OSO'
_cell_length_a		20.20200000
_cell_length_b		20.20200000
_cell_length_c		7.64700000
_cell_angle_alpha		90.000000
_cell_angle_beta		90.000000
_cell_angle_gamma		120.000000
_space group_name_H-M_alt		'P 1'
_space_group_IT_number		1

loop_
	_atom_site_label
	_atom_site_type_symbol
	_atom_site_fract_x
	_atom_site_fract_y
	_atom_site_fract_z
	O1	O	-1.585500000000E-01	-3.171000000000E-01	-5.000000000000E-01
	O2	O	1.585500000000E-01	3.171000000000E-01	-5.000000000000E-01
	O3	O	3.171000000000E-01	1.585500000000E-01	1.666666666667E-01
	O4	O	-1.585500000000E-01	1.585500000000E-01	-1.666666666667E-01
	O5	O	1.585500000000E-01	-1.585500000000E-01	-1.666666666667E-01
	O6	O	-3.171000000000E-01	-1.585500000000E-01	1.666666666667E-01
	O7	O	2.321500000000E-01	1.785000000000E-01	-2.905000000000E-01
	O8	O	-2.321500000000E-01	-1.785000000000E-01	-2.905000000000E-01
	O9	O	-1.785000000000E-01	5.365000000000E-02	3.761666666667E-01
	O10	O	-5.365000000000E-02	-2.321500000000E-01	4.283333333333E-02
	O11	O	5.365000000000E-02	2.321500000000E-01	4.283333333333E-02
	O12	O	1.785000000000E-01	-5.365000000000E-02	3.761666666667E-01
	O13	O	5.365000000000E-02	-1.785000000000E-01	2.905000000000E-01
	O14	O	-2.321500000000E-01	-5.365000000000E-02	-3.761666666667E-01
	O15	O	1.785000000000E-01	2.321500000000E-01	-4.283333333333E-02
	O16	O	-1.785000000000E-01	-2.321500000000E-01	-4.283333333333E-02
	O17	O	2.321500000000E-01	5.365000000000E-02	-3.761666666667E-01
	O18	O	-5.365000000000E-02	1.785000000000E-01	2.905000000000E-01
	Si19	Si	1.432750000000E-01	2.865500000000E-01	0.000000000000E+00
	Si20	Si	-1.432750000000E-01	-2.865500000000E-01	0.000000000000E+00
	Si21	Si	-2.865500000000E-01	-1.432750000000E-01	-3.333333333333E-01
	Si22	Si	1.432750000000E-01	-1.432750000000E-01	3.333333333333E-01
	Si23	Si	-1.432750000000E-01	1.432750000000E-01	3.333333333333E-01
	Si24	Si	2.865500000000E-01	1.432750000000E-01	-3.333333333333E-01
	Si25	Si	2.500000000000E-01	2.775557561563E-17	-5.000000000000E-01
	Si26	Si	0.000000000000E+00	2.500000000000E-01	1.666666666667E-01
	Si27	Si	2.500000000000E-01	2.500000000000E-01	-1.666666666667E-01
	O28	O	-2.678500000000E-01	-3.215000000000E-01	-2.905000000000E-01
	O29	O	-3.414500000000E-01	-1.829000000000E-01	-5.000000000000E-01
	O30	O	-2.321500000000E-01	3.215000000000E-01	-2.905000000000E-01
	O31	O	2.678500000000E-01	-1.785000000000E-01	-2.905000000000E-01
	O32	O	2.678500000000E-01	3.215000000000E-01	-2.905000000000E-01
	O33	O	3.414500000000E-01	-3.171000000000E-01	-5.000000000000E-01
	O34	O	-1.785000000000E-01	-4.463500000000E-01	3.761666666667E-01
	O35	O	3.215000000000E-01	5.365000000000E-02	3.761666666667E-01
	O36	O	3.215000000000E-01	-4.463500000000E-01	3.761666666667E-01
	O37	O	3.171000000000E-01	-3.414500000000E-01	1.666666666667E-01
	O38	O	-5.365000000000E-02	2.678500000000E-01	4.283333333333E-02
	O39	O	4.463500000000E-01	-2.321500000000E-01	4.283333333333E-02
	O40	O	4.463500000000E-01	2.678500000000E-01	4.283333333333E-02
	O41	O	-1.829000000000E-01	1.585500000000E-01	1.666666666667E-01
	O42	O	5.365000000000E-02	-2.678500000000E-01	4.283333333333E-02
	O43	O	-4.463500000000E-01	2.321500000000E-01	4.283333333333E-02
	O44	O	-4.463500000000E-01	-2.678500000000E-01	4.283333333333E-02
	O45	O	-1.829000000000E-01	-3.414500000000E-01	1.666666666667E-01
	O46	O	1.785000000000E-01	4.463500000000E-01	3.761666666667E-01
	O47	O	-3.215000000000E-01	-5.365000000000E-02	3.761666666667E-01
	O48	O	-3.215000000000E-01	4.463500000000E-01	3.761666666667E-01
	O49	O	3.414500000000E-01	1.829000000000E-01	-5.000000000000E-01
	O50	O	5.365000000000E-02	3.215000000000E-01	2.905000000000E-01
	O51	O	-4.463500000000E-01	-1.785000000000E-01	2.905000000000E-01
	O52	O	-4.463500000000E-01	3.215000000000E-01	2.905000000000E-01
	O53	O	-1.585500000000E-01	-3.414500000000E-01	-1.666666666667E-01
	O54	O	-2.321500000000E-01	4.463500000000E-01	-3.761666666667E-01
	O55	O	2.678500000000E-01	-5.365000000000E-02	-3.761666666667E-01
	O56	O	2.678500000000E-01	4.463500000000E-01	-3.761666666667E-01
	O57	O	3.414500000000E-01	1.585500000000E-01	-1.666666666667E-01
	O58	O	1.785000000000E-01	-2.678500000000E-01	-4.283333333333E-02
	O59	O	-3.215000000000E-01	2.321500000000E-01	-4.283333333333E-02
	O60	O	-3.215000000000E-01	-2.678500000000E-01	-4.283333333333E-02
	O61	O	3.414500000000E-01	-3.414500000000E-01	-1.666666666667E-01
	O62	O	-1.785000000000E-01	2.678500000000E-01	-4.283333333333E-02
	O63	O	3.215000000000E-01	-2.321500000000E-01	-4.283333333333E-02
	O64	O	3.215000000000E-01	2.678500000000E-01	-4.283333333333E-02
	O65	O	-1.585500000000E-01	1.829000000000E-01	-5.000000000000E-01
	O66	O	2.321500000000E-01	-4.463500000000E-01	-3.761666666667E-01
	O67	O	-2.678500000000E-01	5.365000000000E-02	-3.761666666667E-01
	O68	O	-2.678500000000E-01	-4.463500000000E-01	-3.761666666667E-01
	O69	O	1.585500000000E-01	3.414500000000E-01	-1.666666666667E-01
	O70	O	-5.365000000000E-02	-3.215000000000E-01	2.905000000000E-01
	O71	O	4.463500000000E-01	1.785000000000E-01	2.905000000000E-01
	O72	O	4.463500000000E-01	-3.215000000000E-01	2.905000000000E-01
	O73	O	-3.414500000000E-01	-1.585500000000E-01	-1.666666666667E-01
	Si74	Si	1.432750000000E-01	-2.134500000000E-01	0.000000000000E+00
	Si75	Si	-3.567250000000E-01	2.865500000000E-01	0.000000000000E+00
	Si76	Si	-3.567250000000E-01	-2.134500000000E-01	0.000000000000E+00
	O77	O	-3.414500000000E-01	3.414500000000E-01	-1.666666666667E-01
	Si78	Si	-1.432750000000E-01	2.134500000000E-01	0.000000000000E+00
	Si79	Si	3.567250000000E-01	-2.865500000000E-01	0.000000000000E+00
	Si80	Si	3.567250000000E-01	2.134500000000E-01	0.000000000000E+00
	O81	O	1.585500000000E-01	-1.829000000000E-01	-5.000000000000E-01
	Si82	Si	-2.865500000000E-01	3.567250000000E-01	-3.333333333333E-01
	Si83	Si	2.134500000000E-01	-1.432750000000E-01	-3.333333333333E-01
	Si84	Si	2.134500000000E-01	3.567250000000E-01	-3.333333333333E-01
	O85	O	-3.171000000000E-01	3.414500000000E-01	1.666666666667E-01
	Si86	Si	1.432750000000E-01	3.567250000000E-01	3.333333333333E-01
	Si87	Si	-3.567250000000E-01	-1.432750000000E-01	3.333333333333E-01
	Si88	Si	-3.567250000000E-01	3.567250000000E-01	3.333333333333E-01
	O89	O	1.829000000000E-01	-1.585500000000E-01	1.666666666667E-01
	Si90	Si	-1.432750000000E-01	-3.567250000000E-01	3.333333333333E-01
	Si91	Si	3.567250000000E-01	1.432750000000E-01	3.333333333333E-01
	Si92	Si	3.567250000000E-01	-3.567250000000E-01	3.333333333333E-01
	O93	O	1.829000000000E-01	3.414500000000E-01	1.666666666667E-01
	Si94	Si	2.865500000000E-01	-3.567250000000E-01	-3.333333333333E-01
	Si95	Si	-2.134500000000E-01	1.432750000000E-01	-3.333333333333E-01
	Si96	Si	-2.134500000000E-01	-3.567250000000E-01	-3.333333333333E-01
	O97	O	-3.414500000000E-01	3.171000000000E-01	-5.000000000000E-01
	Si98	Si	2.500000000000E-01	-5.000000000000E-01	-5.000000000000E-01
	Si99	Si	-2.500000000000E-01	-6.938893903907E-17	-5.000000000000E-01
	Si100	Si	-2.500000000000E-01	5.000000000000E-01	-5.000000000000E-01
	O101	O	2.321500000000E-01	-3.215000000000E-01	-2.905000000000E-01
	Si102	Si	0.000000000000E+00	-2.500000000000E-01	1.666666666667E-01
	Si103	Si	-5.000000000000E-01	2.500000000000E-01	1.666666666667E-01
	Si104	Si	-5.000000000000E-01	-2.500000000000E-01	1.666666666667E-01
	O105	O	-2.678500000000E-01	1.785000000000E-01	-2.905000000000E-01
	Si106	Si	2.500000000000E-01	-2.500000000000E-01	-1.666666666667E-01
	Si107	Si	-2.500000000000E-01	2.500000000000E-01	-1.666666666667E-01
	Si108	Si	-2.500000000000E-01	-2.500000000000E-01	-1.666666666667E-01
