data PCR
_chemical_name_common		'PCR'
_cell_length_a		12.28615356
_cell_length_b		12.28615356
_cell_length_c		12.52230000
_cell_angle_alpha		69.214528
_cell_angle_beta		110.785472
_cell_angle_gamma		110.124040
_space group_name_H-M_alt		'P 1'
_space_group_IT_number		1

loop_
	_atom_site_label
	_atom_site_type_symbol
	_atom_site_fract_x
	_atom_site_fract_y
	_atom_site_fract_z
	O1	O	-2.668000000000E-01	7.920000000000E-02	-2.550000000000E-01
	O2	O	7.920000000000E-02	-2.668000000000E-01	2.550000000000E-01
	O3	O	2.668000000000E-01	-7.920000000000E-02	2.550000000000E-01
	O4	O	-7.920000000000E-02	2.668000000000E-01	-2.550000000000E-01
	O5	O	-4.003000000000E-01	-1.379000000000E-01	-2.717000000000E-01
	O6	O	-1.379000000000E-01	-4.003000000000E-01	2.717000000000E-01
	O7	O	4.003000000000E-01	1.379000000000E-01	2.717000000000E-01
	O8	O	1.379000000000E-01	4.003000000000E-01	-2.717000000000E-01
	O9	O	-3.753000000000E-01	-6.270000000000E-02	-9.100000000000E-02
	O10	O	-6.270000000000E-02	-3.753000000000E-01	9.100000000000E-02
	O11	O	3.753000000000E-01	6.270000000000E-02	9.100000000000E-02
	O12	O	6.270000000000E-02	3.753000000000E-01	-9.100000000000E-02
	O13	O	4.976000000000E-01	3.120000000000E-02	-3.019000000000E-01
	O14	O	3.120000000000E-02	4.976000000000E-01	3.019000000000E-01
	O15	O	-4.976000000000E-01	-3.120000000000E-02	3.019000000000E-01
	O16	O	-3.120000000000E-02	-4.976000000000E-01	-3.019000000000E-01
	O17	O	-3.612000000000E-01	-1.476000000000E-01	1.352000000000E-01
	O18	O	-1.476000000000E-01	-3.612000000000E-01	-1.352000000000E-01
	O19	O	3.612000000000E-01	1.476000000000E-01	-1.352000000000E-01
	O20	O	1.476000000000E-01	3.612000000000E-01	1.352000000000E-01
	O21	O	4.902000000000E-01	-3.046000000000E-01	2.578000000000E-01
	O22	O	-3.046000000000E-01	4.902000000000E-01	-2.578000000000E-01
	O23	O	-4.902000000000E-01	3.046000000000E-01	-2.578000000000E-01
	O24	O	3.046000000000E-01	-4.902000000000E-01	2.578000000000E-01
	O25	O	-3.320000000000E-01	-1.448000000000E-01	3.527000000000E-01
	O26	O	-1.448000000000E-01	-3.320000000000E-01	-3.527000000000E-01
	O27	O	3.320000000000E-01	1.448000000000E-01	-3.527000000000E-01
	O28	O	1.448000000000E-01	3.320000000000E-01	3.527000000000E-01
	O29	O	-2.851000000000E-01	-3.185000000000E-01	3.153000000000E-01
	O30	O	-3.185000000000E-01	-2.851000000000E-01	-3.153000000000E-01
	O31	O	2.851000000000E-01	3.185000000000E-01	-3.153000000000E-01
	O32	O	3.185000000000E-01	2.851000000000E-01	3.153000000000E-01
	O33	O	8.120000000000E-02	-2.666000000000E-01	-5.030000000000E-02
	O34	O	-2.666000000000E-01	8.120000000000E-02	5.030000000000E-02
	O35	O	-8.120000000000E-02	2.666000000000E-01	5.030000000000E-02
	O36	O	2.666000000000E-01	-8.120000000000E-02	-5.030000000000E-02
	O37	O	7.415499710105E-17	-5.000000000000E-01	0.000000000000E+00
	O38	O	-5.000000000000E-01	1.864384586980E-17	0.000000000000E+00
	O39	O	8.050000000000E-02	-2.673000000000E-01	-3.555000000000E-01
	O40	O	-2.673000000000E-01	8.050000000000E-02	3.555000000000E-01
	O41	O	-8.050000000000E-02	2.673000000000E-01	3.555000000000E-01
	O42	O	2.673000000000E-01	-8.050000000000E-02	-3.555000000000E-01
	O43	O	-8.870000000000E-02	-3.643000000000E-01	4.797000000000E-01
	O44	O	-3.643000000000E-01	-8.870000000000E-02	-4.797000000000E-01
	O45	O	8.870000000000E-02	3.643000000000E-01	-4.797000000000E-01
	O46	O	3.643000000000E-01	8.870000000000E-02	4.797000000000E-01
	O47	O	-2.718000000000E-01	4.592000000000E-01	4.169000000000E-01
	O48	O	4.592000000000E-01	-2.718000000000E-01	-4.169000000000E-01
	O49	O	2.718000000000E-01	-4.592000000000E-01	-4.169000000000E-01
	O50	O	-4.592000000000E-01	2.718000000000E-01	4.169000000000E-01
	O51	O	-2.944000000000E-01	2.944000000000E-01	3.159000000000E-01
	O52	O	2.944000000000E-01	-2.944000000000E-01	-3.159000000000E-01
	O53	O	-2.433000000000E-01	2.433000000000E-01	1.543000000000E-01
	O54	O	2.433000000000E-01	-2.433000000000E-01	-1.543000000000E-01
	O55	O	2.933000000000E-01	-2.933000000000E-01	2.868000000000E-01
	O56	O	-2.933000000000E-01	2.933000000000E-01	-2.868000000000E-01
	O57	O	2.457000000000E-01	-2.457000000000E-01	4.521000000000E-01
	O58	O	-2.457000000000E-01	2.457000000000E-01	-4.521000000000E-01
	O59	O	2.963000000000E-01	-2.963000000000E-01	7.820000000000E-02
	O60	O	-2.963000000000E-01	2.963000000000E-01	-7.820000000000E-02
	Si61	Si	-3.864000000000E-01	-2.240000000000E-02	-2.308000000000E-01
	Si62	Si	-2.240000000000E-02	-3.864000000000E-01	2.308000000000E-01
	Si63	Si	3.864000000000E-01	2.240000000000E-02	2.308000000000E-01
	Si64	Si	2.240000000000E-02	3.864000000000E-01	-2.308000000000E-01
	Si65	Si	-3.725000000000E-01	-2.295000000000E-01	2.654000000000E-01
	Si66	Si	-2.295000000000E-01	-3.725000000000E-01	-2.654000000000E-01
	Si67	Si	3.725000000000E-01	2.295000000000E-01	-2.654000000000E-01
	Si68	Si	2.295000000000E-01	3.725000000000E-01	2.654000000000E-01
	Si69	Si	-3.230000000000E-02	-3.761000000000E-01	-2.350000000000E-02
	Si70	Si	-3.761000000000E-01	-3.230000000000E-02	2.350000000000E-02
	Si71	Si	3.230000000000E-02	3.761000000000E-01	2.350000000000E-02
	Si72	Si	3.761000000000E-01	3.230000000000E-02	-2.350000000000E-02
	Si73	Si	-4.500000000000E-02	-3.656000000000E-01	-3.826000000000E-01
	Si74	Si	-3.656000000000E-01	-4.500000000000E-02	3.826000000000E-01
	Si75	Si	4.500000000000E-02	3.656000000000E-01	3.826000000000E-01
	Si76	Si	3.656000000000E-01	4.500000000000E-02	-3.826000000000E-01
	Si77	Si	-1.955000000000E-01	-4.059000000000E-01	3.713000000000E-01
	Si78	Si	-4.059000000000E-01	-1.955000000000E-01	-3.713000000000E-01
	Si79	Si	1.955000000000E-01	4.059000000000E-01	-3.713000000000E-01
	Si80	Si	4.059000000000E-01	1.955000000000E-01	3.713000000000E-01
	Si81	Si	-2.212000000000E-01	2.212000000000E-01	2.942000000000E-01
	Si82	Si	2.212000000000E-01	-2.212000000000E-01	-2.942000000000E-01
	Si83	Si	2.213000000000E-01	-2.213000000000E-01	3.114000000000E-01
	Si84	Si	-2.213000000000E-01	2.213000000000E-01	-3.114000000000E-01
	Si85	Si	3.455000000000E-01	-3.455000000000E-01	2.193000000000E-01
	Si86	Si	-3.455000000000E-01	3.455000000000E-01	-2.193000000000E-01
	Si87	Si	2.223000000000E-01	-2.223000000000E-01	-4.410000000000E-02
	Si88	Si	-2.223000000000E-01	2.223000000000E-01	4.410000000000E-02
	Si89	Si	3.181000000000E-01	-3.181000000000E-01	-4.233000000000E-01
	Si90	Si	-3.181000000000E-01	3.181000000000E-01	4.233000000000E-01
