data PHI
_chemical_name_common		'PHI'
_cell_length_a		8.59663010
_cell_length_b		8.59663010
_cell_length_c		28.09200000
_cell_angle_alpha		90.000000
_cell_angle_beta		90.000000
_cell_angle_gamma		70.230837
_space group_name_H-M_alt		'P 1'
_space_group_IT_number		1

loop_
	_atom_site_label
	_atom_site_type_symbol
	_atom_site_fract_x
	_atom_site_fract_y
	_atom_site_fract_z
	O1	O	1.115000000000E-01	1.115000000000E-01	-2.420000000000E-02
	O2	O	-1.115000000000E-01	-1.115000000000E-01	2.258000000000E-01
	O3	O	-1.115000000000E-01	-1.115000000000E-01	2.420000000000E-02
	O4	O	1.115000000000E-01	1.115000000000E-01	-2.258000000000E-01
	O5	O	3.487000000000E-01	-9.900000000000E-03	3.865000000000E-02
	O6	O	-3.487000000000E-01	9.900000000000E-03	-2.113500000000E-01
	O7	O	9.900000000000E-03	-3.487000000000E-01	-3.865000000000E-02
	O8	O	-9.900000000000E-03	3.487000000000E-01	2.113500000000E-01
	O9	O	-3.487000000000E-01	9.900000000000E-03	-3.865000000000E-02
	O10	O	3.487000000000E-01	-9.900000000000E-03	2.113500000000E-01
	O11	O	-9.900000000000E-03	3.487000000000E-01	3.865000000000E-02
	O12	O	9.900000000000E-03	-3.487000000000E-01	-2.113500000000E-01
	O13	O	2.021000000000E-01	-2.021000000000E-01	0.000000000000E+00
	O14	O	-2.021000000000E-01	2.021000000000E-01	2.500000000000E-01
	O15	O	-2.021000000000E-01	2.021000000000E-01	0.000000000000E+00
	O16	O	2.021000000000E-01	-2.021000000000E-01	2.500000000000E-01
	O17	O	4.000000000000E-01	-9.460000000000E-02	-5.145000000000E-02
	O18	O	-4.000000000000E-01	9.460000000000E-02	1.985500000000E-01
	O19	O	9.460000000000E-02	-4.000000000000E-01	5.145000000000E-02
	O20	O	-9.460000000000E-02	4.000000000000E-01	-1.985500000000E-01
	O21	O	-4.000000000000E-01	9.460000000000E-02	5.145000000000E-02
	O22	O	4.000000000000E-01	-9.460000000000E-02	-1.985500000000E-01
	O23	O	-9.460000000000E-02	4.000000000000E-01	-5.145000000000E-02
	O24	O	9.460000000000E-02	-4.000000000000E-01	1.985500000000E-01
	O25	O	4.299000000000E-01	5.170000000000E-02	1.250000000000E-01
	O26	O	-4.299000000000E-01	-5.170000000000E-02	-1.250000000000E-01
	O27	O	-5.170000000000E-02	-4.299000000000E-01	-1.250000000000E-01
	O28	O	5.170000000000E-02	4.299000000000E-01	1.250000000000E-01
	O29	O	2.966000000000E-01	2.966000000000E-01	6.545000000000E-02
	O30	O	-2.966000000000E-01	-2.966000000000E-01	-1.845500000000E-01
	O31	O	-2.966000000000E-01	-2.966000000000E-01	-6.545000000000E-02
	O32	O	2.966000000000E-01	2.966000000000E-01	1.845500000000E-01
	Si33	Si	2.654000000000E-01	-4.860000000000E-02	-9.200000000000E-03
	Si34	Si	-2.654000000000E-01	4.860000000000E-02	2.408000000000E-01
	Si35	Si	4.860000000000E-02	-2.654000000000E-01	9.200000000000E-03
	Si36	Si	-4.860000000000E-02	2.654000000000E-01	-2.408000000000E-01
	Si37	Si	-2.654000000000E-01	4.860000000000E-02	9.200000000000E-03
	Si38	Si	2.654000000000E-01	-4.860000000000E-02	-2.408000000000E-01
	Si39	Si	-4.860000000000E-02	2.654000000000E-01	-9.200000000000E-03
	Si40	Si	4.860000000000E-02	-2.654000000000E-01	2.408000000000E-01
	Si41	Si	4.188000000000E-01	1.082000000000E-01	7.010000000000E-02
	Si42	Si	-4.188000000000E-01	-1.082000000000E-01	-1.799000000000E-01
	Si43	Si	-1.082000000000E-01	-4.188000000000E-01	-7.010000000000E-02
	Si44	Si	1.082000000000E-01	4.188000000000E-01	1.799000000000E-01
	Si45	Si	-4.188000000000E-01	-1.082000000000E-01	-7.010000000000E-02
	Si46	Si	4.188000000000E-01	1.082000000000E-01	1.799000000000E-01
	Si47	Si	1.082000000000E-01	4.188000000000E-01	7.010000000000E-02
	Si48	Si	-1.082000000000E-01	-4.188000000000E-01	-1.799000000000E-01
	O49	O	-1.115000000000E-01	-1.115000000000E-01	-2.742000000000E-01
	O50	O	4.299000000000E-01	5.170000000000E-02	-3.750000000000E-01
	O51	O	2.021000000000E-01	-2.021000000000E-01	-5.000000000000E-01
	O52	O	-4.299000000000E-01	-5.170000000000E-02	3.750000000000E-01
	O53	O	9.900000000000E-03	-3.487000000000E-01	4.613500000000E-01
	O54	O	-5.170000000000E-02	-4.299000000000E-01	3.750000000000E-01
	O55	O	-2.021000000000E-01	2.021000000000E-01	-2.500000000000E-01
	O56	O	5.170000000000E-02	4.299000000000E-01	-3.750000000000E-01
	O57	O	1.115000000000E-01	1.115000000000E-01	2.742000000000E-01
	O58	O	2.966000000000E-01	2.966000000000E-01	-4.345500000000E-01
	O59	O	-2.021000000000E-01	2.021000000000E-01	-5.000000000000E-01
	O60	O	-2.966000000000E-01	-2.966000000000E-01	3.154500000000E-01
	O61	O	-9.900000000000E-03	3.487000000000E-01	-2.886500000000E-01
	O62	O	-2.966000000000E-01	-2.966000000000E-01	4.345500000000E-01
	O63	O	2.021000000000E-01	-2.021000000000E-01	-2.500000000000E-01
	O64	O	2.966000000000E-01	2.966000000000E-01	-3.154500000000E-01
	O65	O	1.115000000000E-01	1.115000000000E-01	4.758000000000E-01
	Si66	Si	2.654000000000E-01	-4.860000000000E-02	4.908000000000E-01
	O67	O	4.000000000000E-01	-9.460000000000E-02	4.485500000000E-01
	Si68	Si	-2.654000000000E-01	4.860000000000E-02	-2.592000000000E-01
	O69	O	-3.487000000000E-01	9.900000000000E-03	4.613500000000E-01
	Si70	Si	4.860000000000E-02	-2.654000000000E-01	-4.908000000000E-01
	O71	O	-4.000000000000E-01	9.460000000000E-02	-3.014500000000E-01
	Si72	Si	-4.860000000000E-02	2.654000000000E-01	2.592000000000E-01
	O73	O	3.487000000000E-01	-9.900000000000E-03	-4.613500000000E-01
	Si74	Si	-2.654000000000E-01	4.860000000000E-02	-4.908000000000E-01
	O75	O	9.460000000000E-02	-4.000000000000E-01	-4.485500000000E-01
	Si76	Si	2.654000000000E-01	-4.860000000000E-02	2.592000000000E-01
	O77	O	3.487000000000E-01	-9.900000000000E-03	-2.886500000000E-01
	Si78	Si	-4.860000000000E-02	2.654000000000E-01	4.908000000000E-01
	O79	O	-9.460000000000E-02	4.000000000000E-01	3.014500000000E-01
	Si80	Si	4.860000000000E-02	-2.654000000000E-01	-2.592000000000E-01
	O81	O	-1.115000000000E-01	-1.115000000000E-01	-4.758000000000E-01
	Si82	Si	4.188000000000E-01	1.082000000000E-01	-4.299000000000E-01
	O83	O	-4.000000000000E-01	9.460000000000E-02	-4.485500000000E-01
	Si84	Si	-4.188000000000E-01	-1.082000000000E-01	3.201000000000E-01
	O85	O	-9.900000000000E-03	3.487000000000E-01	-4.613500000000E-01
	Si86	Si	-1.082000000000E-01	-4.188000000000E-01	4.299000000000E-01
	O87	O	4.000000000000E-01	-9.460000000000E-02	3.014500000000E-01
	Si88	Si	1.082000000000E-01	4.188000000000E-01	-3.201000000000E-01
	O89	O	-3.487000000000E-01	9.900000000000E-03	2.886500000000E-01
	Si90	Si	-4.188000000000E-01	-1.082000000000E-01	4.299000000000E-01
	O91	O	-9.460000000000E-02	4.000000000000E-01	4.485500000000E-01
	Si92	Si	4.188000000000E-01	1.082000000000E-01	-3.201000000000E-01
	O93	O	9.900000000000E-03	-3.487000000000E-01	2.886500000000E-01
	Si94	Si	1.082000000000E-01	4.188000000000E-01	-4.299000000000E-01
	O95	O	9.460000000000E-02	-4.000000000000E-01	-3.014500000000E-01
	Si96	Si	-1.082000000000E-01	-4.188000000000E-01	3.201000000000E-01
