data PON
_chemical_name_common		'PON'
_cell_length_a		8.91400000
_cell_length_b		9.20900000
_cell_length_c		16.08700000
_cell_angle_alpha		90.000000
_cell_angle_beta		90.000000
_cell_angle_gamma		90.000000
_space group_name_H-M_alt		'P 1'
_space_group_IT_number		1

loop_
	_atom_site_label
	_atom_site_type_symbol
	_atom_site_fract_x
	_atom_site_fract_y
	_atom_site_fract_z
	O1	O	3.352000000000E-01	-1.443000000000E-01	3.875000000000E-01
	O2	O	-3.352000000000E-01	1.443000000000E-01	-1.125000000000E-01
	O3	O	1.648000000000E-01	-1.443000000000E-01	-1.125000000000E-01
	O4	O	-1.648000000000E-01	1.443000000000E-01	3.875000000000E-01
	O5	O	9.310000000000E-02	-2.545000000000E-01	4.572000000000E-01
	O6	O	-9.310000000000E-02	2.545000000000E-01	-4.280000000000E-02
	O7	O	4.069000000000E-01	-2.545000000000E-01	-4.280000000000E-02
	O8	O	-4.069000000000E-01	2.545000000000E-01	4.572000000000E-01
	O9	O	9.020000000000E-02	-1.870000000000E-01	2.995000000000E-01
	O10	O	-9.020000000000E-02	1.870000000000E-01	-2.005000000000E-01
	O11	O	4.098000000000E-01	-1.870000000000E-01	-2.005000000000E-01
	O12	O	-4.098000000000E-01	1.870000000000E-01	2.995000000000E-01
	O13	O	9.760000000000E-02	1.980000000000E-02	4.127000000000E-01
	O14	O	-9.760000000000E-02	-1.980000000000E-02	-8.730000000000E-02
	O15	O	4.024000000000E-01	1.980000000000E-02	-8.730000000000E-02
	O16	O	-4.024000000000E-01	-1.980000000000E-02	4.127000000000E-01
	O17	O	1.414000000000E-01	3.621000000000E-01	-1.916000000000E-01
	O18	O	-1.414000000000E-01	-3.621000000000E-01	3.084000000000E-01
	O19	O	3.586000000000E-01	3.621000000000E-01	3.084000000000E-01
	O20	O	-3.586000000000E-01	-3.621000000000E-01	-1.916000000000E-01
	O21	O	-1.289000000000E-01	4.663000000000E-01	-2.216000000000E-01
	O22	O	1.289000000000E-01	-4.663000000000E-01	2.784000000000E-01
	O23	O	-3.711000000000E-01	4.663000000000E-01	2.784000000000E-01
	O24	O	3.711000000000E-01	-4.663000000000E-01	-2.216000000000E-01
	O25	O	1.180000000000E-02	3.151000000000E-01	-3.359000000000E-01
	O26	O	-1.180000000000E-02	-3.151000000000E-01	1.641000000000E-01
	O27	O	4.882000000000E-01	3.151000000000E-01	1.641000000000E-01
	O28	O	-4.882000000000E-01	-3.151000000000E-01	-3.359000000000E-01
	O29	O	-1.400000000000E-02	-2.375000000000E-01	6.800000000000E-03
	O30	O	1.400000000000E-02	2.375000000000E-01	-4.932000000000E-01
	O31	O	-4.860000000000E-01	-2.375000000000E-01	-4.932000000000E-01
	O32	O	4.860000000000E-01	2.375000000000E-01	6.800000000000E-03
	O33	O	2.260000000000E-01	-3.594000000000E-01	7.000000000000E-02
	O34	O	-2.260000000000E-01	3.594000000000E-01	-4.300000000000E-01
	O35	O	2.740000000000E-01	-3.594000000000E-01	-4.300000000000E-01
	O36	O	-2.740000000000E-01	3.594000000000E-01	7.000000000000E-02
	O37	O	-1.390000000000E-02	4.845000000000E-01	4.640000000000E-02
	O38	O	1.390000000000E-02	-4.845000000000E-01	-4.536000000000E-01
	O39	O	-4.861000000000E-01	4.845000000000E-01	-4.536000000000E-01
	O40	O	4.861000000000E-01	-4.845000000000E-01	4.640000000000E-02
	O41	O	8.550000000000E-02	2.830000000000E-01	3.511000000000E-01
	O42	O	-8.550000000000E-02	-2.830000000000E-01	-1.489000000000E-01
	O43	O	4.145000000000E-01	2.830000000000E-01	-1.489000000000E-01
	O44	O	-4.145000000000E-01	-2.830000000000E-01	3.511000000000E-01
	O45	O	2.225000000000E-01	4.934000000000E-01	4.320000000000E-01
	O46	O	-2.225000000000E-01	-4.934000000000E-01	-6.800000000000E-02
	O47	O	2.775000000000E-01	4.934000000000E-01	-6.800000000000E-02
	O48	O	-2.775000000000E-01	-4.934000000000E-01	4.320000000000E-01
	Si49	Si	1.548000000000E-01	-1.407000000000E-01	3.892000000000E-01
	Si50	Si	-1.548000000000E-01	1.407000000000E-01	-1.108000000000E-01
	Si51	Si	3.452000000000E-01	-1.407000000000E-01	-1.108000000000E-01
	Si52	Si	-3.452000000000E-01	1.407000000000E-01	3.892000000000E-01
	Si53	Si	4.530000000000E-02	-3.566000000000E-01	7.220000000000E-02
	Si54	Si	-4.530000000000E-02	3.566000000000E-01	-4.278000000000E-01
	Si55	Si	4.547000000000E-01	-3.566000000000E-01	-4.278000000000E-01
	Si56	Si	-4.547000000000E-01	3.566000000000E-01	7.220000000000E-02
	Si57	Si	1.992000000000E-01	4.181000000000E-01	3.426000000000E-01
	Si58	Si	-1.992000000000E-01	-4.181000000000E-01	-1.574000000000E-01
	Si59	Si	3.008000000000E-01	4.181000000000E-01	-1.574000000000E-01
	Si60	Si	-3.008000000000E-01	-4.181000000000E-01	3.426000000000E-01
	Si61	Si	-1.590000000000E-02	3.328000000000E-01	-2.376000000000E-01
	Si62	Si	1.590000000000E-02	-3.328000000000E-01	2.624000000000E-01
	Si63	Si	-4.841000000000E-01	3.328000000000E-01	2.624000000000E-01
	Si64	Si	4.841000000000E-01	-3.328000000000E-01	-2.376000000000E-01
	Si65	Si	1.502000000000E-01	-4.015000000000E-01	-4.988000000000E-01
	Si66	Si	-1.502000000000E-01	4.015000000000E-01	1.200000000000E-03
	Si67	Si	3.498000000000E-01	-4.015000000000E-01	1.200000000000E-03
	Si68	Si	-3.498000000000E-01	4.015000000000E-01	-4.988000000000E-01
	Si69	Si	6.900000000000E-03	1.709000000000E-01	4.144000000000E-01
	Si70	Si	-6.900000000000E-03	-1.709000000000E-01	-8.560000000000E-02
	Si71	Si	4.931000000000E-01	1.709000000000E-01	-8.560000000000E-02
	Si72	Si	-4.931000000000E-01	-1.709000000000E-01	4.144000000000E-01
