data PUN
_chemical_name_common		'PUN'
_cell_length_a		14.68900000
_cell_length_b		8.64500000
_cell_length_c		18.94100000
_cell_angle_alpha		90.000000
_cell_angle_beta		90.000000
_cell_angle_gamma		90.000000
_space group_name_H-M_alt		'P 1'
_space_group_IT_number		1

loop_
	_atom_site_label
	_atom_site_type_symbol
	_atom_site_fract_x
	_atom_site_fract_y
	_atom_site_fract_z
	O1	O	-4.399000000000E-01	-2.733000000000E-01	-4.083000000000E-01
	O2	O	-6.010000000000E-02	-2.267000000000E-01	9.170000000000E-02
	O3	O	6.010000000000E-02	-2.267000000000E-01	4.083000000000E-01
	O4	O	4.399000000000E-01	-2.733000000000E-01	-9.170000000000E-02
	O5	O	4.399000000000E-01	2.733000000000E-01	4.083000000000E-01
	O6	O	6.010000000000E-02	2.267000000000E-01	-9.170000000000E-02
	O7	O	-6.010000000000E-02	2.267000000000E-01	-4.083000000000E-01
	O8	O	-4.399000000000E-01	2.733000000000E-01	9.170000000000E-02
	O9	O	4.016000000000E-01	-3.931000000000E-01	-4.439000000000E-01
	O10	O	9.840000000000E-02	-1.069000000000E-01	5.610000000000E-02
	O11	O	-9.840000000000E-02	-1.069000000000E-01	4.439000000000E-01
	O12	O	-4.016000000000E-01	-3.931000000000E-01	-5.610000000000E-02
	O13	O	-4.016000000000E-01	3.931000000000E-01	4.439000000000E-01
	O14	O	-9.840000000000E-02	1.069000000000E-01	-5.610000000000E-02
	O15	O	9.840000000000E-02	1.069000000000E-01	-4.439000000000E-01
	O16	O	4.016000000000E-01	3.931000000000E-01	5.610000000000E-02
	O17	O	2.869000000000E-01	-4.937000000000E-01	4.598000000000E-01
	O18	O	2.131000000000E-01	-6.300000000000E-03	-4.020000000000E-02
	O19	O	-2.131000000000E-01	-6.300000000000E-03	-4.598000000000E-01
	O20	O	-2.869000000000E-01	-4.937000000000E-01	4.020000000000E-02
	O21	O	-2.869000000000E-01	4.937000000000E-01	-4.598000000000E-01
	O22	O	-2.131000000000E-01	6.300000000000E-03	4.020000000000E-02
	O23	O	2.131000000000E-01	6.300000000000E-03	4.598000000000E-01
	O24	O	2.869000000000E-01	4.937000000000E-01	-4.020000000000E-02
	O25	O	2.772000000000E-01	3.075000000000E-01	3.545000000000E-01
	O26	O	2.228000000000E-01	1.925000000000E-01	-1.455000000000E-01
	O27	O	-2.228000000000E-01	1.925000000000E-01	-3.545000000000E-01
	O28	O	-2.772000000000E-01	3.075000000000E-01	1.455000000000E-01
	O29	O	-2.772000000000E-01	-3.075000000000E-01	-3.545000000000E-01
	O30	O	-2.228000000000E-01	-1.925000000000E-01	1.455000000000E-01
	O31	O	2.228000000000E-01	-1.925000000000E-01	3.545000000000E-01
	O32	O	2.772000000000E-01	-3.075000000000E-01	-1.455000000000E-01
	O33	O	-4.159000000000E-01	-2.213000000000E-01	-2.747000000000E-01
	O34	O	-8.410000000000E-02	-2.787000000000E-01	2.253000000000E-01
	O35	O	8.410000000000E-02	-2.787000000000E-01	2.747000000000E-01
	O36	O	4.159000000000E-01	-2.213000000000E-01	-2.253000000000E-01
	O37	O	4.159000000000E-01	2.213000000000E-01	2.747000000000E-01
	O38	O	8.410000000000E-02	2.787000000000E-01	-2.253000000000E-01
	O39	O	-8.410000000000E-02	2.787000000000E-01	-2.747000000000E-01
	O40	O	-4.159000000000E-01	2.213000000000E-01	2.253000000000E-01
	O41	O	4.694000000000E-01	-4.344000000000E-01	-3.157000000000E-01
	O42	O	3.060000000000E-02	-6.560000000000E-02	1.843000000000E-01
	O43	O	-3.060000000000E-02	-6.560000000000E-02	3.157000000000E-01
	O44	O	-4.694000000000E-01	-4.344000000000E-01	-1.843000000000E-01
	O45	O	-4.694000000000E-01	4.344000000000E-01	3.157000000000E-01
	O46	O	-3.060000000000E-02	6.560000000000E-02	-1.843000000000E-01
	O47	O	3.060000000000E-02	6.560000000000E-02	-3.157000000000E-01
	O48	O	4.694000000000E-01	4.344000000000E-01	1.843000000000E-01
	O49	O	4.557000000000E-01	-4.268000000000E-01	4.250000000000E-01
	O50	O	4.430000000000E-02	-7.320000000000E-02	-7.500000000000E-02
	O51	O	-4.430000000000E-02	-7.320000000000E-02	-4.250000000000E-01
	O52	O	-4.557000000000E-01	-4.268000000000E-01	7.500000000000E-02
	O53	O	-4.557000000000E-01	4.268000000000E-01	-4.250000000000E-01
	O54	O	-4.430000000000E-02	7.320000000000E-02	7.500000000000E-02
	O55	O	4.430000000000E-02	7.320000000000E-02	4.250000000000E-01
	O56	O	4.557000000000E-01	4.268000000000E-01	-7.500000000000E-02
	O57	O	-3.463000000000E-01	-2.700000000000E-02	-3.677000000000E-01
	O58	O	-1.537000000000E-01	-4.730000000000E-01	1.323000000000E-01
	O59	O	1.537000000000E-01	-4.730000000000E-01	3.677000000000E-01
	O60	O	3.463000000000E-01	-2.700000000000E-02	-1.323000000000E-01
	O61	O	3.463000000000E-01	2.700000000000E-02	3.677000000000E-01
	O62	O	1.537000000000E-01	4.730000000000E-01	-1.323000000000E-01
	O63	O	-1.537000000000E-01	4.730000000000E-01	-3.677000000000E-01
	O64	O	-3.463000000000E-01	2.700000000000E-02	1.323000000000E-01
	O65	O	1.582000000000E-01	2.964000000000E-01	4.579000000000E-01
	O66	O	3.418000000000E-01	2.036000000000E-01	-4.210000000000E-02
	O67	O	-3.418000000000E-01	2.036000000000E-01	-4.579000000000E-01
	O68	O	-1.582000000000E-01	2.964000000000E-01	4.210000000000E-02
	O69	O	-1.582000000000E-01	-2.964000000000E-01	-4.579000000000E-01
	O70	O	-3.418000000000E-01	-2.036000000000E-01	4.210000000000E-02
	O71	O	3.418000000000E-01	-2.036000000000E-01	4.579000000000E-01
	O72	O	1.582000000000E-01	-2.964000000000E-01	-4.210000000000E-02
	Si73	Si	-3.688000000000E-01	-2.054000000000E-01	-3.513000000000E-01
	Si74	Si	-1.312000000000E-01	-2.946000000000E-01	1.487000000000E-01
	Si75	Si	1.312000000000E-01	-2.946000000000E-01	3.513000000000E-01
	Si76	Si	3.688000000000E-01	-2.054000000000E-01	-1.487000000000E-01
	Si77	Si	3.688000000000E-01	2.054000000000E-01	3.513000000000E-01
	Si78	Si	1.312000000000E-01	2.946000000000E-01	-1.487000000000E-01
	Si79	Si	-1.312000000000E-01	2.946000000000E-01	-3.513000000000E-01
	Si80	Si	-3.688000000000E-01	2.054000000000E-01	1.487000000000E-01
	Si81	Si	4.929000000000E-01	-4.192000000000E-01	-3.985000000000E-01
	Si82	Si	7.100000000000E-03	-8.080000000000E-02	1.015000000000E-01
	Si83	Si	-7.100000000000E-03	-8.080000000000E-02	3.985000000000E-01
	Si84	Si	-4.929000000000E-01	-4.192000000000E-01	-1.015000000000E-01
	Si85	Si	-4.929000000000E-01	4.192000000000E-01	3.985000000000E-01
	Si86	Si	-7.100000000000E-03	8.080000000000E-02	-1.015000000000E-01
	Si87	Si	7.100000000000E-03	8.080000000000E-02	-3.985000000000E-01
	Si88	Si	4.929000000000E-01	4.192000000000E-01	1.015000000000E-01
	Si89	Si	2.192000000000E-01	4.094000000000E-01	4.097000000000E-01
	Si90	Si	2.808000000000E-01	9.060000000000E-02	-9.030000000000E-02
	Si91	Si	-2.808000000000E-01	9.060000000000E-02	-4.097000000000E-01
	Si92	Si	-2.192000000000E-01	4.094000000000E-01	9.030000000000E-02
	Si93	Si	-2.192000000000E-01	-4.094000000000E-01	-4.097000000000E-01
	Si94	Si	-2.808000000000E-01	-9.060000000000E-02	9.030000000000E-02
	Si95	Si	2.808000000000E-01	-9.060000000000E-02	4.097000000000E-01
	Si96	Si	2.192000000000E-01	-4.094000000000E-01	-9.030000000000E-02
	Si97	Si	3.711000000000E-01	-3.792000000000E-01	4.746000000000E-01
	Si98	Si	1.289000000000E-01	-1.208000000000E-01	-2.540000000000E-02
	Si99	Si	-1.289000000000E-01	-1.208000000000E-01	-4.746000000000E-01
	Si100	Si	-3.711000000000E-01	-3.792000000000E-01	2.540000000000E-02
	Si101	Si	-3.711000000000E-01	3.792000000000E-01	-4.746000000000E-01
	Si102	Si	-1.289000000000E-01	1.208000000000E-01	2.540000000000E-02
	Si103	Si	1.289000000000E-01	1.208000000000E-01	4.746000000000E-01
	Si104	Si	3.711000000000E-01	3.792000000000E-01	-2.540000000000E-02
	Si105	Si	0.000000000000E+00	-1.720000000000E-01	2.500000000000E-01
	Si106	Si	-5.000000000000E-01	-3.280000000000E-01	-2.500000000000E-01
	Si107	Si	0.000000000000E+00	1.720000000000E-01	-2.500000000000E-01
	Si108	Si	-5.000000000000E-01	3.280000000000E-01	2.500000000000E-01
