data PWO
_chemical_name_common		'PWO'
_cell_length_a		9.18040000
_cell_length_b		23.34704000
_cell_length_c		10.87849000
_cell_angle_alpha		90.000000
_cell_angle_beta		91.670000
_cell_angle_gamma		90.000000
_space group_name_H-M_alt		'P 1'
_space_group_IT_number		1

loop_
	_atom_site_label
	_atom_site_type_symbol
	_atom_site_fract_x
	_atom_site_fract_y
	_atom_site_fract_z
	Si1	Si	1.536800000000E-01	2.039400000000E-01	2.196900000000E-01
	Si2	Si	-1.536800000000E-01	-4.606000000000E-02	2.803100000000E-01
	Si3	Si	-1.536800000000E-01	-2.039400000000E-01	-2.196900000000E-01
	Si4	Si	1.536800000000E-01	4.606000000000E-02	-2.803100000000E-01
	Si5	Si	8.753000000000E-02	-8.212500000000E-02	4.698800000000E-01
	Si6	Si	-8.753000000000E-02	1.678750000000E-01	3.012000000000E-02
	Si7	Si	-8.753000000000E-02	8.212500000000E-02	-4.698800000000E-01
	Si8	Si	8.753000000000E-02	-1.678750000000E-01	-3.012000000000E-02
	Si9	Si	1.435900000000E-01	8.358000000000E-02	3.229600000000E-01
	Si10	Si	-1.435900000000E-01	-1.664200000000E-01	1.770400000000E-01
	Si11	Si	-1.435900000000E-01	-8.358000000000E-02	-3.229600000000E-01
	Si12	Si	1.435900000000E-01	1.664200000000E-01	-1.770400000000E-01
	Si13	Si	3.268300000000E-01	2.400450000000E-01	-1.510000000000E-03
	Si14	Si	-3.268300000000E-01	-9.955000000000E-03	-4.984900000000E-01
	Si15	Si	-3.268300000000E-01	-2.400450000000E-01	1.510000000000E-03
	Si16	Si	3.268300000000E-01	9.955000000000E-03	4.984900000000E-01
	Si17	Si	3.921000000000E-02	-2.069400000000E-01	3.907000000000E-01
	Si18	Si	-3.921000000000E-02	4.306000000000E-02	1.093000000000E-01
	Si19	Si	-3.921000000000E-02	2.069400000000E-01	-3.907000000000E-01
	Si20	Si	3.921000000000E-02	-4.306000000000E-02	-1.093000000000E-01
	O21	O	1.496700000000E-01	-2.380400000000E-01	2.996400000000E-01
	O22	O	-1.496700000000E-01	1.196000000000E-02	2.003600000000E-01
	O23	O	-1.496700000000E-01	2.380400000000E-01	-2.996400000000E-01
	O24	O	1.496700000000E-01	-1.196000000000E-02	-2.003600000000E-01
	O25	O	9.000000000000E-04	1.955800000000E-01	1.454500000000E-01
	O26	O	-9.000000000000E-04	-5.442000000000E-02	3.545500000000E-01
	O27	O	-9.000000000000E-04	-1.955800000000E-01	-1.454500000000E-01
	O28	O	9.000000000000E-04	5.442000000000E-02	-3.545500000000E-01
	O29	O	1.814200000000E-01	1.506700000000E-01	3.114600000000E-01
	O30	O	-1.814200000000E-01	-9.933000000000E-02	1.885400000000E-01
	O31	O	-1.814200000000E-01	-1.506700000000E-01	-3.114600000000E-01
	O32	O	1.814200000000E-01	9.933000000000E-02	-1.885400000000E-01
	O33	O	2.831300000000E-01	2.081250000000E-01	1.233800000000E-01
	O34	O	-2.831300000000E-01	-4.187500000000E-02	3.766200000000E-01
	O35	O	-2.831300000000E-01	-2.081250000000E-01	-1.233800000000E-01
	O36	O	2.831300000000E-01	4.187500000000E-02	-3.766200000000E-01
	O37	O	-2.424500000000E-01	1.996250000000E-01	1.235000000000E-02
	O38	O	2.424500000000E-01	-5.037500000000E-02	4.876500000000E-01
	O39	O	2.424500000000E-01	-1.996250000000E-01	-1.235000000000E-02
	O40	O	-2.424500000000E-01	5.037500000000E-02	-4.876500000000E-01
	O41	O	4.250000000000E-03	7.467500000000E-02	4.073000000000E-01
	O42	O	-4.250000000000E-03	-1.753250000000E-01	9.270000000000E-02
	O43	O	-4.250000000000E-03	-7.467500000000E-02	-4.073000000000E-01
	O44	O	4.250000000000E-03	1.753250000000E-01	-9.270000000000E-02
	O45	O	1.128000000000E-01	-1.493550000000E-01	4.451000000000E-01
	O46	O	-1.128000000000E-01	1.006450000000E-01	5.490000000000E-02
	O47	O	-1.128000000000E-01	1.493550000000E-01	-4.451000000000E-01
	O48	O	1.128000000000E-01	-1.006450000000E-01	-5.490000000000E-02
	O49	O	2.809800000000E-01	4.970500000000E-02	3.827000000000E-01
	O50	O	-2.809800000000E-01	-2.002950000000E-01	1.173000000000E-01
	O51	O	-2.809800000000E-01	-4.970500000000E-02	-3.827000000000E-01
	O52	O	2.809800000000E-01	2.002950000000E-01	-1.173000000000E-01
	O53	O	1.071900000000E-01	5.898500000000E-02	1.871500000000E-01
	O54	O	-1.071900000000E-01	-1.910150000000E-01	3.128500000000E-01
	O55	O	-1.071900000000E-01	-5.898500000000E-02	-1.871500000000E-01
	O56	O	1.071900000000E-01	1.910150000000E-01	-3.128500000000E-01
	O57	O	-5.000000000000E-01	-4.105814859530E-34	-5.000000000000E-01
	O58	O	-5.000000000000E-01	2.500000000000E-01	0.000000000000E+00
	O59	O	0.000000000000E+00	0.000000000000E+00	0.000000000000E+00
	O60	O	5.090613518393E-18	2.500000000000E-01	-5.000000000000E-01
	Si61	Si	8.753000000000E-02	3.321250000000E-01	-3.012000000000E-02
	O62	O	-1.814200000000E-01	3.493300000000E-01	-3.114600000000E-01
	Si63	Si	3.268300000000E-01	-4.900450000000E-01	4.984900000000E-01
	O64	O	1.814200000000E-01	-4.006700000000E-01	-1.885400000000E-01
	Si65	Si	1.536800000000E-01	-2.960600000000E-01	2.196900000000E-01
	O66	O	2.831300000000E-01	-2.918750000000E-01	1.233800000000E-01
	Si67	Si	3.921000000000E-02	2.930600000000E-01	3.907000000000E-01
	O68	O	-2.831300000000E-01	4.581250000000E-01	3.766200000000E-01
	Si69	Si	1.435900000000E-01	-4.164200000000E-01	3.229600000000E-01
	O70	O	-2.831300000000E-01	2.918750000000E-01	-1.233800000000E-01
	Si71	Si	-3.921000000000E-02	-4.569400000000E-01	1.093000000000E-01
	O72	O	2.831300000000E-01	-4.581250000000E-01	-3.766200000000E-01
	Si73	Si	8.753000000000E-02	4.178750000000E-01	4.698800000000E-01
	O74	O	-2.424500000000E-01	-3.003750000000E-01	1.235000000000E-02
	Si75	Si	-3.921000000000E-02	-2.930600000000E-01	-3.907000000000E-01
	O76	O	2.424500000000E-01	4.496250000000E-01	4.876500000000E-01
	Si77	Si	-1.435900000000E-01	3.335800000000E-01	1.770400000000E-01
	O78	O	2.424500000000E-01	3.003750000000E-01	-1.235000000000E-02
	Si79	Si	3.921000000000E-02	4.569400000000E-01	-1.093000000000E-01
	O80	O	-2.424500000000E-01	-4.496250000000E-01	-4.876500000000E-01
	Si81	Si	-1.536800000000E-01	2.960600000000E-01	-2.196900000000E-01
	O82	O	4.250000000000E-03	-4.253250000000E-01	4.073000000000E-01
	O83	O	1.496700000000E-01	2.619600000000E-01	2.996400000000E-01
	O84	O	-4.250000000000E-03	3.246750000000E-01	9.270000000000E-02
	Si85	Si	-1.435900000000E-01	4.164200000000E-01	-3.229600000000E-01
	O86	O	-4.250000000000E-03	4.253250000000E-01	-4.073000000000E-01
	O87	O	-1.496700000000E-01	-4.880400000000E-01	2.003600000000E-01
	O88	O	4.250000000000E-03	-3.246750000000E-01	-9.270000000000E-02
	Si89	Si	-8.753000000000E-02	-3.321250000000E-01	3.012000000000E-02
	O90	O	1.128000000000E-01	3.506450000000E-01	4.451000000000E-01
	O91	O	-1.496700000000E-01	-2.619600000000E-01	-2.996400000000E-01
	O92	O	-1.128000000000E-01	-3.993550000000E-01	5.490000000000E-02
	Si93	Si	1.435900000000E-01	-3.335800000000E-01	-1.770400000000E-01
	O94	O	-1.128000000000E-01	-3.506450000000E-01	-4.451000000000E-01
	O95	O	1.496700000000E-01	4.880400000000E-01	-2.003600000000E-01
	O96	O	1.128000000000E-01	3.993550000000E-01	-5.490000000000E-02
	Si97	Si	-1.536800000000E-01	4.539400000000E-01	2.803100000000E-01
	O98	O	2.809800000000E-01	-4.502950000000E-01	3.827000000000E-01
	O99	O	9.000000000000E-04	-3.044200000000E-01	1.454500000000E-01
	O100	O	-2.809800000000E-01	2.997050000000E-01	1.173000000000E-01
	Si101	Si	3.268300000000E-01	-2.599550000000E-01	-1.510000000000E-03
	O102	O	-2.809800000000E-01	4.502950000000E-01	-3.827000000000E-01
	O103	O	-9.000000000000E-04	4.455800000000E-01	3.545500000000E-01
	O104	O	2.809800000000E-01	-2.997050000000E-01	-1.173000000000E-01
	Si105	Si	-8.753000000000E-02	-4.178750000000E-01	-4.698800000000E-01
	O106	O	1.071900000000E-01	-4.410150000000E-01	1.871500000000E-01
	O107	O	-9.000000000000E-04	3.044200000000E-01	-1.454500000000E-01
	O108	O	-1.071900000000E-01	3.089850000000E-01	3.128500000000E-01
	Si109	Si	-3.268300000000E-01	4.900450000000E-01	-4.984900000000E-01
	O110	O	-1.071900000000E-01	4.410150000000E-01	-1.871500000000E-01
	O111	O	9.000000000000E-04	-4.455800000000E-01	-3.545500000000E-01
	O112	O	1.071900000000E-01	-3.089850000000E-01	-3.128500000000E-01
	Si113	Si	1.536800000000E-01	-4.539400000000E-01	-2.803100000000E-01
	O114	O	-5.000000000000E-01	-5.000000000000E-01	-5.000000000000E-01
	O115	O	1.814200000000E-01	-3.493300000000E-01	3.114600000000E-01
	O116	O	-5.000000000000E-01	-2.500000000000E-01	0.000000000000E+00
	Si117	Si	-3.268300000000E-01	2.599550000000E-01	1.510000000000E-03
	O118	O	0.000000000000E+00	-5.000000000000E-01	0.000000000000E+00
	O119	O	-1.814200000000E-01	4.006700000000E-01	1.885400000000E-01
	O120	O	1.202950742230E-17	-2.500000000000E-01	-5.000000000000E-01
