data PWW
_chemical_name_common		'PWW'
_cell_length_a		11.91759949
_cell_length_b		11.91759949
_cell_length_c		22.09222000
_cell_angle_alpha		64.980327
_cell_angle_beta		115.019673
_cell_angle_gamma		121.167156
_space group_name_H-M_alt		'P 1'
_space_group_IT_number		1

loop_
	_atom_site_label
	_atom_site_type_symbol
	_atom_site_fract_x
	_atom_site_fract_y
	_atom_site_fract_z
	Si1	Si	4.905400000000E-01	-1.822400000000E-01	1.835200000000E-01
	Si2	Si	-1.822400000000E-01	4.905400000000E-01	6.648000000000E-02
	Si3	Si	-4.905400000000E-01	1.822400000000E-01	-1.835200000000E-01
	Si4	Si	1.822400000000E-01	-4.905400000000E-01	-6.648000000000E-02
	Si5	Si	2.909500000000E-01	-1.346700000000E-01	2.157400000000E-01
	Si6	Si	-1.346700000000E-01	2.909500000000E-01	3.426000000000E-02
	Si7	Si	-2.909500000000E-01	1.346700000000E-01	-2.157400000000E-01
	Si8	Si	1.346700000000E-01	-2.909500000000E-01	-3.426000000000E-02
	Si9	Si	4.144100000000E-01	-2.404500000000E-01	-1.238250000000E-01
	Si10	Si	-2.404500000000E-01	4.144100000000E-01	-1.261750000000E-01
	Si11	Si	-4.144100000000E-01	2.404500000000E-01	1.238250000000E-01
	Si12	Si	2.404500000000E-01	-4.144100000000E-01	1.261750000000E-01
	Si13	Si	-3.425900000000E-01	-1.721900000000E-01	-1.691000000000E-01
	Si14	Si	-1.721900000000E-01	-3.425900000000E-01	-8.090000000000E-02
	Si15	Si	3.425900000000E-01	1.721900000000E-01	1.691000000000E-01
	Si16	Si	1.721900000000E-01	3.425900000000E-01	8.090000000000E-02
	Si17	Si	5.713000000000E-02	-4.020100000000E-01	1.831050000000E-01
	Si18	Si	-4.020100000000E-01	5.713000000000E-02	6.689500000000E-02
	Si19	Si	-5.713000000000E-02	4.020100000000E-01	-1.831050000000E-01
	Si20	Si	4.020100000000E-01	-5.713000000000E-02	-6.689500000000E-02
	O21	O	3.971900000000E-01	-1.219300000000E-01	1.837950000000E-01
	O22	O	-1.219300000000E-01	3.971900000000E-01	6.620500000000E-02
	O23	O	-3.971900000000E-01	1.219300000000E-01	-1.837950000000E-01
	O24	O	1.219300000000E-01	-3.971900000000E-01	-6.620500000000E-02
	O25	O	3.956000000000E-01	-3.142200000000E-01	1.537150000000E-01
	O26	O	-3.142200000000E-01	3.956000000000E-01	9.628500000000E-02
	O27	O	-3.956000000000E-01	3.142200000000E-01	-1.537150000000E-01
	O28	O	3.142200000000E-01	-3.956000000000E-01	-9.628500000000E-02
	O29	O	-4.210100000000E-01	-2.231700000000E-01	-2.386950000000E-01
	O30	O	-2.231700000000E-01	-4.210100000000E-01	-1.130500000000E-02
	O31	O	4.210100000000E-01	2.231700000000E-01	2.386950000000E-01
	O32	O	2.231700000000E-01	4.210100000000E-01	1.130500000000E-02
	O33	O	-4.086500000000E-01	-6.849000000000E-02	1.352450000000E-01
	O34	O	-6.849000000000E-02	-4.086500000000E-01	1.147550000000E-01
	O35	O	4.086500000000E-01	6.849000000000E-02	-1.352450000000E-01
	O36	O	6.849000000000E-02	4.086500000000E-01	-1.147550000000E-01
	O37	O	3.405600000000E-01	-1.766200000000E-01	2.989600000000E-01
	O38	O	-1.766200000000E-01	3.405600000000E-01	-4.896000000000E-02
	O39	O	-3.405600000000E-01	1.766200000000E-01	-2.989600000000E-01
	O40	O	1.766200000000E-01	-3.405600000000E-01	4.896000000000E-02
	O41	O	2.807900000000E-01	8.850000000000E-03	1.893400000000E-01
	O42	O	8.850000000000E-03	2.807900000000E-01	6.066000000000E-02
	O43	O	-2.807900000000E-01	-8.850000000000E-03	-1.893400000000E-01
	O44	O	-8.850000000000E-03	-2.807900000000E-01	-6.066000000000E-02
	O45	O	1.431600000000E-01	-2.483800000000E-01	1.901850000000E-01
	O46	O	-2.483800000000E-01	1.431600000000E-01	5.981500000000E-02
	O47	O	-1.431600000000E-01	2.483800000000E-01	-1.901850000000E-01
	O48	O	2.483800000000E-01	-1.431600000000E-01	-5.981500000000E-02
	O49	O	-4.479400000000E-01	-2.354000000000E-01	-1.237900000000E-01
	O50	O	-2.354000000000E-01	-4.479400000000E-01	-1.262100000000E-01
	O51	O	4.479400000000E-01	2.354000000000E-01	1.237900000000E-01
	O52	O	2.354000000000E-01	4.479400000000E-01	1.262100000000E-01
	O53	O	4.508900000000E-01	-1.538300000000E-01	-7.339500000000E-02
	O54	O	-1.538300000000E-01	4.508900000000E-01	-1.766050000000E-01
	O55	O	-4.508900000000E-01	1.538300000000E-01	7.339500000000E-02
	O56	O	1.538300000000E-01	-4.508900000000E-01	1.766050000000E-01
	O57	O	-2.206900000000E-01	-2.206900000000E-01	-1.250000000000E-01
	O58	O	2.206900000000E-01	2.206900000000E-01	1.250000000000E-01
	O59	O	5.620171829702E-17	-5.000000000000E-01	2.500000000000E-01
	O60	O	-5.000000000000E-01	-3.827308087128E-18	0.000000000000E+00
	Si61	Si	1.346700000000E-01	-2.909500000000E-01	4.657400000000E-01
	O62	O	4.210100000000E-01	2.231700000000E-01	-2.613050000000E-01
	Si63	Si	1.721900000000E-01	3.425900000000E-01	-4.191000000000E-01
	O64	O	2.231700000000E-01	4.210100000000E-01	-4.886950000000E-01
	Si65	Si	4.905400000000E-01	-1.822400000000E-01	-3.164800000000E-01
	O66	O	-4.086500000000E-01	-6.849000000000E-02	-3.647550000000E-01
	Si67	Si	5.713000000000E-02	-4.020100000000E-01	-3.168950000000E-01
	O68	O	-6.849000000000E-02	-4.086500000000E-01	-3.852450000000E-01
	Si69	Si	4.144100000000E-01	-2.404500000000E-01	3.761750000000E-01
	O70	O	4.086500000000E-01	6.849000000000E-02	3.647550000000E-01
	Si71	Si	-4.020100000000E-01	5.713000000000E-02	-4.331050000000E-01
	O72	O	6.849000000000E-02	4.086500000000E-01	3.852450000000E-01
	Si73	Si	2.909500000000E-01	-1.346700000000E-01	-2.842600000000E-01
	O74	O	3.405600000000E-01	-1.766200000000E-01	-2.010400000000E-01
	Si75	Si	-5.713000000000E-02	4.020100000000E-01	3.168950000000E-01
	O76	O	-1.766200000000E-01	3.405600000000E-01	4.510400000000E-01
	Si77	Si	-2.404500000000E-01	4.144100000000E-01	3.738250000000E-01
	O78	O	-3.405600000000E-01	1.766200000000E-01	2.010400000000E-01
	Si79	Si	4.020100000000E-01	-5.713000000000E-02	4.331050000000E-01
	O80	O	1.766200000000E-01	-3.405600000000E-01	-4.510400000000E-01
	Si81	Si	-4.905400000000E-01	1.822400000000E-01	3.164800000000E-01
	O82	O	2.807900000000E-01	8.850000000000E-03	-3.106600000000E-01
	O83	O	3.971900000000E-01	-1.219300000000E-01	-3.162050000000E-01
	O84	O	8.850000000000E-03	2.807900000000E-01	-4.393400000000E-01
	Si85	Si	-4.144100000000E-01	2.404500000000E-01	-3.761750000000E-01
	O86	O	-2.807900000000E-01	-8.850000000000E-03	3.106600000000E-01
	O87	O	-1.219300000000E-01	3.971900000000E-01	-4.337950000000E-01
	O88	O	-8.850000000000E-03	-2.807900000000E-01	4.393400000000E-01
	Si89	Si	-1.346700000000E-01	2.909500000000E-01	-4.657400000000E-01
	O90	O	1.431600000000E-01	-2.483800000000E-01	-3.098150000000E-01
	O91	O	-3.971900000000E-01	1.219300000000E-01	3.162050000000E-01
	O92	O	-2.483800000000E-01	1.431600000000E-01	-4.401850000000E-01
	Si93	Si	2.404500000000E-01	-4.144100000000E-01	-3.738250000000E-01
	O94	O	-1.431600000000E-01	2.483800000000E-01	3.098150000000E-01
	O95	O	1.219300000000E-01	-3.971900000000E-01	4.337950000000E-01
	O96	O	2.483800000000E-01	-1.431600000000E-01	4.401850000000E-01
	Si97	Si	-1.822400000000E-01	4.905400000000E-01	-4.335200000000E-01
	O98	O	-4.479400000000E-01	-2.354000000000E-01	3.762100000000E-01
	O99	O	3.956000000000E-01	-3.142200000000E-01	-3.462850000000E-01
	O100	O	-2.354000000000E-01	-4.479400000000E-01	3.737900000000E-01
	Si101	Si	-3.425900000000E-01	-1.721900000000E-01	3.309000000000E-01
	O102	O	4.479400000000E-01	2.354000000000E-01	-3.762100000000E-01
	O103	O	-3.142200000000E-01	3.956000000000E-01	-4.037150000000E-01
	O104	O	2.354000000000E-01	4.479400000000E-01	-3.737900000000E-01
	Si105	Si	-2.909500000000E-01	1.346700000000E-01	2.842600000000E-01
	O106	O	4.508900000000E-01	-1.538300000000E-01	4.266050000000E-01
	O107	O	-3.956000000000E-01	3.142200000000E-01	3.462850000000E-01
	O108	O	-1.538300000000E-01	4.508900000000E-01	3.233950000000E-01
	Si109	Si	-1.721900000000E-01	-3.425900000000E-01	4.191000000000E-01
	O110	O	-4.508900000000E-01	1.538300000000E-01	-4.266050000000E-01
	O111	O	3.142200000000E-01	-3.956000000000E-01	4.037150000000E-01
	O112	O	1.538300000000E-01	-4.508900000000E-01	-3.233950000000E-01
	Si113	Si	1.822400000000E-01	-4.905400000000E-01	4.335200000000E-01
	O114	O	-2.206900000000E-01	-2.206900000000E-01	3.750000000000E-01
	O115	O	-4.210100000000E-01	-2.231700000000E-01	2.613050000000E-01
	O116	O	2.206900000000E-01	2.206900000000E-01	-3.750000000000E-01
	Si117	Si	3.425900000000E-01	1.721900000000E-01	-3.309000000000E-01
	O118	O	8.518684846676E-17	-5.000000000000E-01	-2.500000000000E-01
	O119	O	-2.231700000000E-01	-4.210100000000E-01	4.886950000000E-01
	O120	O	-5.000000000000E-01	-8.551797785112E-17	-5.000000000000E-01
