data RHO
_chemical_name_common		'RHO'
_cell_length_a		12.92023300
_cell_length_b		12.92023300
_cell_length_c		12.92023300
_cell_angle_alpha		109.471221
_cell_angle_beta		109.471221
_cell_angle_gamma		109.471221
_space group_name_H-M_alt		'P 1'
_space_group_IT_number		1

loop_
	_atom_site_label
	_atom_site_type_symbol
	_atom_site_fract_x
	_atom_site_fract_y
	_atom_site_fract_z
	O1	O	4.642000000000E-01	-3.312000000000E-01	4.642000000000E-01
	O2	O	2.046000000000E-01	5.876512955052E-17	-4.642000000000E-01
	O3	O	-4.642000000000E-01	1.923479867637E-17	2.046000000000E-01
	O4	O	-2.046000000000E-01	3.312000000000E-01	-2.046000000000E-01
	O5	O	4.642000000000E-01	4.642000000000E-01	-3.312000000000E-01
	O6	O	-3.312000000000E-01	4.642000000000E-01	4.642000000000E-01
	O7	O	-2.046000000000E-01	-2.046000000000E-01	3.312000000000E-01
	O8	O	1.173853967783E-17	-4.642000000000E-01	2.046000000000E-01
	O9	O	-4.642000000000E-01	2.046000000000E-01	1.173853967783E-17
	O10	O	-1.173853967783E-17	2.046000000000E-01	-4.642000000000E-01
	O11	O	2.046000000000E-01	-4.642000000000E-01	-1.173853967783E-17
	O12	O	3.312000000000E-01	-2.046000000000E-01	-2.046000000000E-01
	O13	O	3.312000000000E-01	-4.642000000000E-01	-4.642000000000E-01
	O14	O	6.724969090909E-17	-2.046000000000E-01	4.642000000000E-01
	O15	O	-7.474594990763E-17	4.642000000000E-01	-2.046000000000E-01
	O16	O	-3.312000000000E-01	2.046000000000E-01	2.046000000000E-01
	O17	O	-4.642000000000E-01	-4.642000000000E-01	3.312000000000E-01
	O18	O	-4.642000000000E-01	3.312000000000E-01	-4.642000000000E-01
	O19	O	2.046000000000E-01	2.046000000000E-01	-3.312000000000E-01
	O20	O	4.642000000000E-01	-1.923479867637E-17	-2.046000000000E-01
	O21	O	-2.046000000000E-01	4.642000000000E-01	1.227608421403E-16
	O22	O	-2.046000000000E-01	-5.876512955052E-17	4.642000000000E-01
	O23	O	4.642000000000E-01	-2.046000000000E-01	-1.173853967783E-17
	O24	O	2.046000000000E-01	-3.312000000000E-01	2.046000000000E-01
	O25	O	-3.807000000000E-01	-2.246000000000E-01	3.947000000000E-01
	O26	O	3.807000000000E-01	2.246000000000E-01	-3.947000000000E-01
	O27	O	3.807000000000E-01	-2.246000000000E-01	1.561000000000E-01
	O28	O	-3.807000000000E-01	2.246000000000E-01	-1.561000000000E-01
	O29	O	3.947000000000E-01	-3.807000000000E-01	-2.246000000000E-01
	O30	O	-2.246000000000E-01	3.947000000000E-01	-3.807000000000E-01
	O31	O	-1.561000000000E-01	-3.807000000000E-01	2.246000000000E-01
	O32	O	2.246000000000E-01	-3.947000000000E-01	3.807000000000E-01
	O33	O	-3.947000000000E-01	3.807000000000E-01	2.246000000000E-01
	O34	O	-2.246000000000E-01	1.561000000000E-01	3.807000000000E-01
	O35	O	1.561000000000E-01	3.807000000000E-01	-2.246000000000E-01
	O36	O	2.246000000000E-01	-1.561000000000E-01	-3.807000000000E-01
	O37	O	2.246000000000E-01	3.807000000000E-01	-3.947000000000E-01
	O38	O	-2.246000000000E-01	-3.807000000000E-01	3.947000000000E-01
	O39	O	2.246000000000E-01	-3.807000000000E-01	-1.561000000000E-01
	O40	O	-2.246000000000E-01	3.807000000000E-01	1.561000000000E-01
	O41	O	3.807000000000E-01	-3.947000000000E-01	2.246000000000E-01
	O42	O	-3.947000000000E-01	2.246000000000E-01	3.807000000000E-01
	O43	O	3.807000000000E-01	1.561000000000E-01	-2.246000000000E-01
	O44	O	3.947000000000E-01	-2.246000000000E-01	-3.807000000000E-01
	O45	O	-3.807000000000E-01	3.947000000000E-01	-2.246000000000E-01
	O46	O	-1.561000000000E-01	2.246000000000E-01	-3.807000000000E-01
	O47	O	-3.807000000000E-01	-1.561000000000E-01	2.246000000000E-01
	O48	O	1.561000000000E-01	-2.246000000000E-01	3.807000000000E-01
	Si49	Si	-5.000000000000E-01	-3.537000000000E-01	3.537000000000E-01
	Si50	Si	2.926000000000E-01	1.463000000000E-01	-3.537000000000E-01
	Si51	Si	-5.000000000000E-01	-1.463000000000E-01	1.463000000000E-01
	Si52	Si	-2.926000000000E-01	3.537000000000E-01	-1.463000000000E-01
	Si53	Si	3.537000000000E-01	-5.000000000000E-01	-3.537000000000E-01
	Si54	Si	-3.537000000000E-01	3.537000000000E-01	-5.000000000000E-01
	Si55	Si	-1.463000000000E-01	-2.926000000000E-01	3.537000000000E-01
	Si56	Si	1.463000000000E-01	-3.537000000000E-01	2.926000000000E-01
	Si57	Si	-3.537000000000E-01	2.926000000000E-01	1.463000000000E-01
	Si58	Si	-1.463000000000E-01	1.463000000000E-01	-5.000000000000E-01
	Si59	Si	1.463000000000E-01	-5.000000000000E-01	-1.463000000000E-01
	Si60	Si	3.537000000000E-01	-1.463000000000E-01	-2.926000000000E-01
	Si61	Si	-5.000000000000E-01	3.537000000000E-01	-3.537000000000E-01
	Si62	Si	-2.926000000000E-01	-1.463000000000E-01	3.537000000000E-01
	Si63	Si	-5.000000000000E-01	1.463000000000E-01	-1.463000000000E-01
	Si64	Si	2.926000000000E-01	-3.537000000000E-01	1.463000000000E-01
	Si65	Si	-3.537000000000E-01	-5.000000000000E-01	3.537000000000E-01
	Si66	Si	3.537000000000E-01	-3.537000000000E-01	-5.000000000000E-01
	Si67	Si	1.463000000000E-01	2.926000000000E-01	-3.537000000000E-01
	Si68	Si	-1.463000000000E-01	3.537000000000E-01	-2.926000000000E-01
	Si69	Si	3.537000000000E-01	-2.926000000000E-01	-1.463000000000E-01
	Si70	Si	1.463000000000E-01	-1.463000000000E-01	-5.000000000000E-01
	Si71	Si	-1.463000000000E-01	-5.000000000000E-01	1.463000000000E-01
	Si72	Si	-3.537000000000E-01	1.463000000000E-01	2.926000000000E-01
