data RON
_chemical_name_common		'RON'
_cell_length_a		13.55320712
_cell_length_b		13.55320712
_cell_length_c		13.55320712
_cell_angle_alpha		96.309321
_cell_angle_beta		96.309321
_cell_angle_gamma		141.279622
_space group_name_H-M_alt		'P 1'
_space_group_IT_number		1

loop_
	_atom_site_label
	_atom_site_type_symbol
	_atom_site_fract_x
	_atom_site_fract_y
	_atom_site_fract_z
	Si1	Si	2.837600000000E-01	1.008300000000E-01	3.845900000000E-01
	Si2	Si	-2.837600000000E-01	-1.008300000000E-01	-3.845900000000E-01
	Si3	Si	2.162400000000E-01	-3.991700000000E-01	-1.829300000000E-01
	Si4	Si	-2.162400000000E-01	3.991700000000E-01	1.829300000000E-01
	Si5	Si	3.991700000000E-01	2.162400000000E-01	-3.845900000000E-01
	Si6	Si	-3.991700000000E-01	-2.162400000000E-01	3.845900000000E-01
	Si7	Si	-1.008300000000E-01	2.837600000000E-01	1.829300000000E-01
	Si8	Si	1.008300000000E-01	-2.837600000000E-01	-1.829300000000E-01
	Si9	Si	3.635000000000E-02	1.184600000000E-01	1.548100000000E-01
	Si10	Si	-3.635000000000E-02	-1.184600000000E-01	-1.548100000000E-01
	Si11	Si	4.636500000000E-01	-3.815400000000E-01	8.211000000000E-02
	Si12	Si	-4.636500000000E-01	3.815400000000E-01	-8.211000000000E-02
	Si13	Si	3.815400000000E-01	4.636500000000E-01	-1.548100000000E-01
	Si14	Si	-3.815400000000E-01	-4.636500000000E-01	1.548100000000E-01
	Si15	Si	-1.184600000000E-01	3.635000000000E-02	-8.211000000000E-02
	Si16	Si	1.184600000000E-01	-3.635000000000E-02	8.211000000000E-02
	Si17	Si	2.500000000000E-01	4.696000000000E-01	2.196000000000E-01
	Si18	Si	2.500000000000E-01	3.040000000000E-02	-2.196000000000E-01
	Si19	Si	3.040000000000E-02	2.500000000000E-01	-2.196000000000E-01
	Si20	Si	4.696000000000E-01	2.500000000000E-01	2.196000000000E-01
	Si21	Si	-2.500000000000E-01	-4.696000000000E-01	-2.196000000000E-01
	Si22	Si	-2.500000000000E-01	-3.040000000000E-02	2.196000000000E-01
	Si23	Si	-3.040000000000E-02	-2.500000000000E-01	2.196000000000E-01
	Si24	Si	-4.696000000000E-01	-2.500000000000E-01	-2.196000000000E-01
	Si25	Si	2.420900000000E-01	2.579100000000E-01	-5.000000000000E-01
	Si26	Si	-2.420900000000E-01	-2.579100000000E-01	-5.000000000000E-01
	Si27	Si	2.579100000000E-01	-2.420900000000E-01	1.582000000000E-02
	Si28	Si	-2.579100000000E-01	2.420900000000E-01	-1.582000000000E-02
	O29	O	3.669800000000E-01	1.330200000000E-01	-5.000000000000E-01
	O30	O	-3.669800000000E-01	-1.330200000000E-01	-5.000000000000E-01
	O31	O	1.330200000000E-01	-3.669800000000E-01	-2.339600000000E-01
	O32	O	-1.330200000000E-01	3.669800000000E-01	2.339600000000E-01
	O33	O	1.243000000000E-01	-9.513000000000E-02	3.223700000000E-01
	O34	O	-4.175000000000E-01	-1.980700000000E-01	-3.223700000000E-01
	O35	O	3.757000000000E-01	-3.019300000000E-01	-2.194300000000E-01
	O36	O	-8.250000000000E-02	-4.048700000000E-01	2.194300000000E-01
	O37	O	-4.048700000000E-01	3.757000000000E-01	-3.223700000000E-01
	O38	O	-3.019300000000E-01	-8.250000000000E-02	3.223700000000E-01
	O39	O	-1.980700000000E-01	1.243000000000E-01	2.194300000000E-01
	O40	O	-9.513000000000E-02	-4.175000000000E-01	-2.194300000000E-01
	O41	O	-1.243000000000E-01	9.513000000000E-02	-3.223700000000E-01
	O42	O	4.175000000000E-01	1.980700000000E-01	3.223700000000E-01
	O43	O	-3.757000000000E-01	3.019300000000E-01	2.194300000000E-01
	O44	O	8.250000000000E-02	4.048700000000E-01	-2.194300000000E-01
	O45	O	4.048700000000E-01	-3.757000000000E-01	3.223700000000E-01
	O46	O	3.019300000000E-01	8.250000000000E-02	-3.223700000000E-01
	O47	O	1.980700000000E-01	-1.243000000000E-01	-2.194300000000E-01
	O48	O	9.513000000000E-02	4.175000000000E-01	2.194300000000E-01
	O49	O	2.274100000000E-01	1.699500000000E-01	3.973600000000E-01
	O50	O	-2.274100000000E-01	-1.699500000000E-01	-3.973600000000E-01
	O51	O	2.725900000000E-01	-3.300500000000E-01	-5.746000000000E-02
	O52	O	-2.725900000000E-01	3.300500000000E-01	5.746000000000E-02
	O53	O	3.300500000000E-01	2.725900000000E-01	-3.973600000000E-01
	O54	O	-3.300500000000E-01	-2.725900000000E-01	3.973600000000E-01
	O55	O	-1.699500000000E-01	2.274100000000E-01	5.746000000000E-02
	O56	O	1.699500000000E-01	-2.274100000000E-01	-5.746000000000E-02
	O57	O	1.972000000000E-01	3.141000000000E-01	2.190400000000E-01
	O58	O	9.506000000000E-02	-2.184000000000E-02	-2.190400000000E-01
	O59	O	3.028000000000E-01	-4.781600000000E-01	1.169000000000E-01
	O60	O	4.049400000000E-01	1.859000000000E-01	-1.169000000000E-01
	O61	O	1.859000000000E-01	3.028000000000E-01	-2.190400000000E-01
	O62	O	-4.781600000000E-01	4.049400000000E-01	2.190400000000E-01
	O63	O	-2.184000000000E-02	1.972000000000E-01	-1.169000000000E-01
	O64	O	3.141000000000E-01	9.506000000000E-02	1.169000000000E-01
	O65	O	-1.972000000000E-01	-3.141000000000E-01	-2.190400000000E-01
	O66	O	-9.506000000000E-02	2.184000000000E-02	2.190400000000E-01
	O67	O	-3.028000000000E-01	4.781600000000E-01	-1.169000000000E-01
	O68	O	-4.049400000000E-01	-1.859000000000E-01	1.169000000000E-01
	O69	O	-1.859000000000E-01	-3.028000000000E-01	2.190400000000E-01
	O70	O	4.781600000000E-01	-4.049400000000E-01	-2.190400000000E-01
	O71	O	2.184000000000E-02	-1.972000000000E-01	1.169000000000E-01
	O72	O	-3.141000000000E-01	-9.506000000000E-02	-1.169000000000E-01
	O73	O	9.095000000000E-02	4.825000000000E-02	1.392000000000E-01
	O74	O	-9.095000000000E-02	-4.825000000000E-02	-1.392000000000E-01
	O75	O	4.090500000000E-01	-4.517500000000E-01	-4.270000000000E-02
	O76	O	-4.090500000000E-01	4.517500000000E-01	4.270000000000E-02
	O77	O	4.517500000000E-01	4.090500000000E-01	-1.392000000000E-01
	O78	O	-4.517500000000E-01	-4.090500000000E-01	1.392000000000E-01
	O79	O	-4.825000000000E-02	9.095000000000E-02	4.270000000000E-02
	O80	O	4.825000000000E-02	-9.095000000000E-02	-4.270000000000E-02
