data RRO
_chemical_name_common		'RRO'
_cell_length_a		7.41200000
_cell_length_b		8.64100000
_cell_length_c		34.36000000
_cell_angle_alpha		90.000000
_cell_angle_beta		113.678000
_cell_angle_gamma		90.000000
_space group_name_H-M_alt		'P 1'
_space_group_IT_number		1

loop_
	_atom_site_label
	_atom_site_type_symbol
	_atom_site_fract_x
	_atom_site_fract_y
	_atom_site_fract_z
	O1	O	1.272000000000E-01	-2.861000000000E-01	9.900000000000E-03
	O2	O	-1.272000000000E-01	-2.861000000000E-01	2.401000000000E-01
	O3	O	-1.272000000000E-01	2.861000000000E-01	-9.900000000000E-03
	O4	O	1.272000000000E-01	2.861000000000E-01	-2.401000000000E-01
	O5	O	0.000000000000E+00	0.000000000000E+00	0.000000000000E+00
	O6	O	1.476507017615E-16	-5.617615199826E-33	2.500000000000E-01
	O7	O	-1.672000000000E-01	-2.073000000000E-01	2.990000000000E-02
	O8	O	1.672000000000E-01	-2.073000000000E-01	2.201000000000E-01
	O9	O	1.672000000000E-01	2.073000000000E-01	-2.990000000000E-02
	O10	O	-1.672000000000E-01	2.073000000000E-01	-2.201000000000E-01
	O11	O	-2.186000000000E-01	-2.210000000000E-01	-5.040000000000E-02
	O12	O	2.186000000000E-01	-2.210000000000E-01	-1.996000000000E-01
	O13	O	2.186000000000E-01	2.210000000000E-01	5.040000000000E-02
	O14	O	-2.186000000000E-01	2.210000000000E-01	1.996000000000E-01
	O15	O	-3.171000000000E-01	-4.820000000000E-01	6.100000000000E-03
	O16	O	3.171000000000E-01	-4.820000000000E-01	2.439000000000E-01
	O17	O	3.171000000000E-01	4.820000000000E-01	-6.100000000000E-03
	O18	O	-3.171000000000E-01	4.820000000000E-01	-2.439000000000E-01
	O19	O	4.834000000000E-01	2.945000000000E-01	-4.215000000000E-02
	O20	O	-4.834000000000E-01	2.945000000000E-01	-2.078500000000E-01
	O21	O	-4.834000000000E-01	-2.945000000000E-01	4.215000000000E-02
	O22	O	4.834000000000E-01	-2.945000000000E-01	2.078500000000E-01
	O23	O	-3.204000000000E-01	4.881000000000E-01	-7.010000000000E-02
	O24	O	3.204000000000E-01	4.881000000000E-01	-1.799000000000E-01
	O25	O	3.204000000000E-01	-4.881000000000E-01	7.010000000000E-02
	O26	O	-3.204000000000E-01	-4.881000000000E-01	1.799000000000E-01
	O27	O	1.313000000000E-01	-3.620000000000E-01	-1.416500000000E-01
	O28	O	-1.313000000000E-01	-3.620000000000E-01	-1.083500000000E-01
	O29	O	-1.313000000000E-01	3.620000000000E-01	1.416500000000E-01
	O30	O	1.313000000000E-01	3.620000000000E-01	1.083500000000E-01
	O31	O	5.000000000000E-01	-2.923000000000E-01	-1.250000000000E-01
	O32	O	-5.000000000000E-01	2.923000000000E-01	1.250000000000E-01
	O33	O	1.412000000000E-01	4.209000000000E-01	-8.710000000000E-02
	O34	O	-1.412000000000E-01	4.209000000000E-01	-1.629000000000E-01
	O35	O	-1.412000000000E-01	-4.209000000000E-01	8.710000000000E-02
	O36	O	1.412000000000E-01	-4.209000000000E-01	1.629000000000E-01
	Si37	Si	-6.520000000000E-02	-1.784000000000E-01	-3.000000000000E-03
	Si38	Si	6.520000000000E-02	-1.784000000000E-01	2.530000000000E-01
	Si39	Si	6.520000000000E-02	1.784000000000E-01	3.000000000000E-03
	Si40	Si	-6.520000000000E-02	1.784000000000E-01	-2.530000000000E-01
	Si41	Si	-3.181000000000E-01	3.955000000000E-01	-2.925000000000E-02
	Si42	Si	3.181000000000E-01	3.955000000000E-01	-2.207500000000E-01
	Si43	Si	3.181000000000E-01	-3.955000000000E-01	2.925000000000E-02
	Si44	Si	-3.181000000000E-01	-3.955000000000E-01	2.207500000000E-01
	Si45	Si	2.934000000000E-01	-3.460000000000E-01	-1.616000000000E-01
	Si46	Si	-2.934000000000E-01	-3.460000000000E-01	-8.840000000000E-02
	Si47	Si	-2.934000000000E-01	3.460000000000E-01	1.616000000000E-01
	Si48	Si	2.934000000000E-01	3.460000000000E-01	8.840000000000E-02
	Si49	Si	2.769000000000E-01	3.495000000000E-01	-4.145000000000E-02
	Si50	Si	-2.769000000000E-01	3.495000000000E-01	-2.085500000000E-01
	Si51	Si	-2.769000000000E-01	-3.495000000000E-01	4.145000000000E-02
	Si52	Si	2.769000000000E-01	-3.495000000000E-01	2.085500000000E-01
	Si53	Si	7.382535088074E-17	4.698000000000E-01	1.250000000000E-01
	Si54	Si	-1.570920777276E-16	-4.698000000000E-01	-1.250000000000E-01
	O55	O	-2.186000000000E-01	2.210000000000E-01	-3.004000000000E-01
	O56	O	-1.313000000000E-01	-3.620000000000E-01	3.916500000000E-01
	O57	O	1.272000000000E-01	2.861000000000E-01	2.599000000000E-01
	O58	O	-1.313000000000E-01	3.620000000000E-01	-3.583500000000E-01
	O59	O	-3.171000000000E-01	-4.820000000000E-01	-4.939000000000E-01
	O60	O	1.313000000000E-01	3.620000000000E-01	-3.916500000000E-01
	O61	O	1.672000000000E-01	-2.073000000000E-01	-2.799000000000E-01
	O62	O	-5.000000000000E-01	-2.923000000000E-01	3.750000000000E-01
	O63	O	3.171000000000E-01	-4.820000000000E-01	-2.561000000000E-01
	O64	O	5.000000000000E-01	2.923000000000E-01	-3.750000000000E-01
	O65	O	1.272000000000E-01	-2.861000000000E-01	-4.901000000000E-01
	O66	O	1.412000000000E-01	4.209000000000E-01	4.129000000000E-01
	O67	O	3.171000000000E-01	4.820000000000E-01	4.939000000000E-01
	O68	O	-1.412000000000E-01	4.209000000000E-01	3.371000000000E-01
	O69	O	1.672000000000E-01	2.073000000000E-01	4.701000000000E-01
	O70	O	-1.412000000000E-01	-4.209000000000E-01	-4.129000000000E-01
	O71	O	-3.171000000000E-01	4.820000000000E-01	2.561000000000E-01
	O72	O	1.412000000000E-01	-4.209000000000E-01	-3.371000000000E-01
	O73	O	1.842791010604E-16	-3.588713368781E-32	-5.000000000000E-01
	Si74	Si	-6.520000000000E-02	-1.784000000000E-01	4.970000000000E-01
	O75	O	4.834000000000E-01	2.945000000000E-01	4.578500000000E-01
	Si76	Si	6.520000000000E-02	-1.784000000000E-01	-2.470000000000E-01
	O77	O	-1.672000000000E-01	2.073000000000E-01	2.799000000000E-01
	Si78	Si	6.520000000000E-02	1.784000000000E-01	-4.970000000000E-01
	O79	O	-4.834000000000E-01	2.945000000000E-01	2.921500000000E-01
	Si80	Si	-6.520000000000E-02	1.784000000000E-01	2.470000000000E-01
	O81	O	-1.272000000000E-01	2.861000000000E-01	4.901000000000E-01
	Si82	Si	-3.181000000000E-01	3.955000000000E-01	4.707500000000E-01
	O83	O	-4.834000000000E-01	-2.945000000000E-01	-4.578500000000E-01
	Si84	Si	3.181000000000E-01	3.955000000000E-01	2.792500000000E-01
	O85	O	-2.186000000000E-01	-2.210000000000E-01	4.496000000000E-01
	Si86	Si	3.181000000000E-01	-3.955000000000E-01	-4.707500000000E-01
	O87	O	4.834000000000E-01	-2.945000000000E-01	-2.921500000000E-01
	Si88	Si	-3.181000000000E-01	-3.955000000000E-01	-2.792500000000E-01
	O89	O	-1.476507017615E-16	1.794356684390E-32	-2.500000000000E-01
	Si90	Si	2.934000000000E-01	-3.460000000000E-01	3.384000000000E-01
	O91	O	-3.204000000000E-01	4.881000000000E-01	4.299000000000E-01
	Si92	Si	-2.934000000000E-01	-3.460000000000E-01	4.116000000000E-01
	O93	O	2.186000000000E-01	-2.210000000000E-01	3.004000000000E-01
	Si94	Si	-2.934000000000E-01	3.460000000000E-01	-3.384000000000E-01
	O95	O	3.204000000000E-01	4.881000000000E-01	3.201000000000E-01
	Si96	Si	2.934000000000E-01	3.460000000000E-01	-4.116000000000E-01
	O97	O	-1.272000000000E-01	-2.861000000000E-01	-2.599000000000E-01
	Si98	Si	2.769000000000E-01	3.495000000000E-01	4.585500000000E-01
	O99	O	3.204000000000E-01	-4.881000000000E-01	-4.299000000000E-01
	Si100	Si	-2.769000000000E-01	3.495000000000E-01	2.914500000000E-01
	O101	O	2.186000000000E-01	2.210000000000E-01	-4.496000000000E-01
	Si102	Si	-2.769000000000E-01	-3.495000000000E-01	-4.585500000000E-01
	O103	O	-3.204000000000E-01	-4.881000000000E-01	-3.201000000000E-01
	Si104	Si	2.769000000000E-01	-3.495000000000E-01	-2.914500000000E-01
	O105	O	-1.672000000000E-01	-2.073000000000E-01	-4.701000000000E-01
	Si106	Si	5.643640842744E-17	4.698000000000E-01	-3.750000000000E-01
	O107	O	1.313000000000E-01	-3.620000000000E-01	3.583500000000E-01
	Si108	Si	1.660158592557E-16	-4.698000000000E-01	3.750000000000E-01
