data RSN
_chemical_name_common		'RSN'
_cell_length_a		21.21678758
_cell_length_b		42.43357516
_cell_length_c		7.15800000
_cell_angle_alpha		89.999494
_cell_angle_beta		90.000506
_cell_angle_gamma		19.414776
_space group_name_H-M_alt		'P 1'
_space_group_IT_number		1

loop_
	_atom_site_label
	_atom_site_type_symbol
	_atom_site_fract_x
	_atom_site_fract_y
	_atom_site_fract_z
	O1	O	-8.090000000000E-02	1.431500000000E-01	0.000000000000E+00
	O2	O	2.863000000000E-01	-4.045000000000E-02	0.000000000000E+00
	O3	O	8.090000000000E-02	-1.431500000000E-01	0.000000000000E+00
	O4	O	-2.863000000000E-01	4.045000000000E-02	0.000000000000E+00
	O5	O	-2.634000000000E-01	1.849000000000E-01	1.844000000000E-01
	O6	O	3.698000000000E-01	-1.317000000000E-01	-1.844000000000E-01
	O7	O	2.634000000000E-01	-1.849000000000E-01	-1.844000000000E-01
	O8	O	-3.698000000000E-01	1.317000000000E-01	1.844000000000E-01
	O9	O	4.860000000000E-02	2.430000000000E-02	0.000000000000E+00
	O10	O	-4.860000000000E-02	-2.430000000000E-02	0.000000000000E+00
	O11	O	-2.635000000000E-01	1.849500000000E-01	-1.843000000000E-01
	O12	O	3.699000000000E-01	-1.317500000000E-01	1.843000000000E-01
	O13	O	2.635000000000E-01	-1.849500000000E-01	1.843000000000E-01
	O14	O	-3.699000000000E-01	1.317500000000E-01	-1.843000000000E-01
	O15	O	-4.537000000000E-01	2.731500000000E-01	-5.000000000000E-01
	O16	O	4.537000000000E-01	2.268500000000E-01	-5.000000000000E-01
	O17	O	-4.999000000000E-01	2.499500000000E-01	2.510000000000E-01
	O18	O	4.999000000000E-01	-2.499500000000E-01	-2.510000000000E-01
	O19	O	1.473000000000E-01	7.365000000000E-02	1.835000000000E-01
	O20	O	1.473000000000E-01	7.365000000000E-02	-1.835000000000E-01
	O21	O	-1.473000000000E-01	-7.365000000000E-02	-1.835000000000E-01
	O22	O	-1.473000000000E-01	-7.365000000000E-02	1.835000000000E-01
	O23	O	1.240000000000E-02	1.906000000000E-01	3.167000000000E-01
	O24	O	3.812000000000E-01	6.200000000000E-03	-3.167000000000E-01
	O25	O	-1.240000000000E-02	-1.906000000000E-01	-3.167000000000E-01
	O26	O	-3.812000000000E-01	-6.200000000000E-03	3.167000000000E-01
	O27	O	2.014000000000E-01	1.007000000000E-01	0.000000000000E+00
	O28	O	-2.014000000000E-01	-1.007000000000E-01	0.000000000000E+00
	O29	O	3.811000000000E-01	6.250000000000E-03	3.167000000000E-01
	O30	O	1.250000000000E-02	1.905500000000E-01	-3.167000000000E-01
	O31	O	-3.811000000000E-01	-6.250000000000E-03	-3.167000000000E-01
	O32	O	-1.250000000000E-02	-1.905500000000E-01	3.167000000000E-01
	O33	O	-2.962000000000E-01	3.519000000000E-01	-5.000000000000E-01
	O34	O	2.962000000000E-01	1.481000000000E-01	-5.000000000000E-01
	O35	O	5.000000000000E-01	4.619988449867E-17	-5.000000000000E-01
	O36	O	-1.056999906596E-16	2.500000000000E-01	-5.000000000000E-01
	Si37	Si	-1.414000000000E-01	1.350000000000E-01	0.000000000000E+00
	Si38	Si	2.700000000000E-01	-7.070000000000E-02	0.000000000000E+00
	Si39	Si	1.414000000000E-01	-1.350000000000E-01	0.000000000000E+00
	Si40	Si	-2.700000000000E-01	7.070000000000E-02	0.000000000000E+00
	Si41	Si	-4.619000000000E-01	-2.309500000000E-01	2.804000000000E-01
	Si42	Si	-4.619000000000E-01	2.690500000000E-01	-2.804000000000E-01
	Si43	Si	4.619000000000E-01	2.309500000000E-01	-2.804000000000E-01
	Si44	Si	4.619000000000E-01	-2.690500000000E-01	2.804000000000E-01
	Si45	Si	1.857000000000E-01	9.285000000000E-02	2.057000000000E-01
	Si46	Si	1.857000000000E-01	9.285000000000E-02	-2.057000000000E-01
	Si47	Si	-1.857000000000E-01	-9.285000000000E-02	-2.057000000000E-01
	Si48	Si	-1.857000000000E-01	-9.285000000000E-02	2.057000000000E-01
	Si49	Si	4.920000000000E-01	-3.410000000000E-02	-5.000000000000E-01
	Si50	Si	-6.820000000000E-02	2.460000000000E-01	-5.000000000000E-01
	Si51	Si	-4.920000000000E-01	3.410000000000E-02	-5.000000000000E-01
	Si52	Si	6.820000000000E-02	-2.460000000000E-01	-5.000000000000E-01
	Si53	Si	1.250000000000E-01	6.250000000000E-02	0.000000000000E+00
	Si54	Si	-1.250000000000E-01	-6.250000000000E-02	0.000000000000E+00
	O55	O	-3.699000000000E-01	-3.682500000000E-01	-1.843000000000E-01
	O56	O	-2.014000000000E-01	3.993000000000E-01	0.000000000000E+00
	O57	O	-2.863000000000E-01	-4.595500000000E-01	0.000000000000E+00
	O58	O	3.811000000000E-01	-4.937500000000E-01	3.167000000000E-01
	O59	O	-4.537000000000E-01	-2.268500000000E-01	-5.000000000000E-01
	O60	O	1.250000000000E-02	-3.094500000000E-01	-3.167000000000E-01
	O61	O	-3.698000000000E-01	-3.683000000000E-01	1.844000000000E-01
	O62	O	-3.811000000000E-01	4.937500000000E-01	-3.167000000000E-01
	O63	O	4.537000000000E-01	-2.731500000000E-01	-5.000000000000E-01
	O64	O	-1.250000000000E-02	3.094500000000E-01	3.167000000000E-01
	O65	O	-8.090000000000E-02	-3.568500000000E-01	0.000000000000E+00
	O66	O	-2.962000000000E-01	-1.481000000000E-01	-5.000000000000E-01
	O67	O	-4.999000000000E-01	-2.500500000000E-01	2.510000000000E-01
	O68	O	2.962000000000E-01	-3.519000000000E-01	-5.000000000000E-01
	O69	O	4.860000000000E-02	-4.757000000000E-01	0.000000000000E+00
	O70	O	-5.000000000000E-01	-5.000000000000E-01	-5.000000000000E-01
	O71	O	4.999000000000E-01	2.500500000000E-01	-2.510000000000E-01
	O72	O	-1.861444037262E-16	-2.500000000000E-01	-5.000000000000E-01
	O73	O	-2.634000000000E-01	-3.151000000000E-01	1.844000000000E-01
	Si74	Si	-1.414000000000E-01	-3.650000000000E-01	0.000000000000E+00
	O75	O	1.473000000000E-01	-4.263500000000E-01	1.835000000000E-01
	Si76	Si	2.700000000000E-01	4.293000000000E-01	0.000000000000E+00
	O77	O	-4.860000000000E-02	4.757000000000E-01	0.000000000000E+00
	Si78	Si	1.414000000000E-01	3.650000000000E-01	0.000000000000E+00
	O79	O	1.473000000000E-01	-4.263500000000E-01	-1.835000000000E-01
	Si80	Si	-2.700000000000E-01	-4.293000000000E-01	0.000000000000E+00
	O81	O	8.090000000000E-02	3.568500000000E-01	0.000000000000E+00
	Si82	Si	-4.619000000000E-01	2.690500000000E-01	2.804000000000E-01
	O83	O	-1.473000000000E-01	4.263500000000E-01	-1.835000000000E-01
	Si84	Si	-4.619000000000E-01	-2.309500000000E-01	-2.804000000000E-01
	O85	O	-2.635000000000E-01	-3.150500000000E-01	-1.843000000000E-01
	Si86	Si	4.619000000000E-01	-2.690500000000E-01	-2.804000000000E-01
	O87	O	-1.473000000000E-01	4.263500000000E-01	1.835000000000E-01
	Si88	Si	4.619000000000E-01	2.309500000000E-01	2.804000000000E-01
	O89	O	3.698000000000E-01	3.683000000000E-01	-1.844000000000E-01
	Si90	Si	1.857000000000E-01	-4.071500000000E-01	2.057000000000E-01
	O91	O	1.240000000000E-02	-3.094000000000E-01	3.167000000000E-01
	Si92	Si	1.857000000000E-01	-4.071500000000E-01	-2.057000000000E-01
	O93	O	3.699000000000E-01	3.682500000000E-01	1.843000000000E-01
	Si94	Si	-1.857000000000E-01	4.071500000000E-01	-2.057000000000E-01
	O95	O	3.812000000000E-01	-4.938000000000E-01	-3.167000000000E-01
	Si96	Si	-1.857000000000E-01	4.071500000000E-01	2.057000000000E-01
	O97	O	2.863000000000E-01	4.595500000000E-01	0.000000000000E+00
	Si98	Si	4.920000000000E-01	4.659000000000E-01	-5.000000000000E-01
	O99	O	-1.240000000000E-02	3.094000000000E-01	-3.167000000000E-01
	Si100	Si	-6.820000000000E-02	-2.540000000000E-01	-5.000000000000E-01
	O101	O	2.635000000000E-01	3.150500000000E-01	1.843000000000E-01
	Si102	Si	-4.920000000000E-01	-4.659000000000E-01	-5.000000000000E-01
	O103	O	-3.812000000000E-01	4.938000000000E-01	3.167000000000E-01
	Si104	Si	6.820000000000E-02	2.540000000000E-01	-5.000000000000E-01
	O105	O	2.634000000000E-01	3.151000000000E-01	-1.844000000000E-01
	Si106	Si	1.250000000000E-01	-4.375000000000E-01	0.000000000000E+00
	O107	O	2.014000000000E-01	-3.993000000000E-01	0.000000000000E+00
	Si108	Si	-1.250000000000E-01	4.375000000000E-01	0.000000000000E+00
