data RTE
_chemical_name_common		'RTE'
_cell_length_a		9.81863667
_cell_length_b		19.63727333
_cell_length_c		7.43100000
_cell_angle_alpha		81.116848
_cell_angle_beta		98.883152
_cell_angle_gamma		91.766109
_space group_name_H-M_alt		'P 1'
_space_group_IT_number		1

loop_
	_atom_site_label
	_atom_site_type_symbol
	_atom_site_fract_x
	_atom_site_fract_y
	_atom_site_fract_z
	O1	O	-1.885000000000E-01	2.178500000000E-01	-3.755000000000E-01
	O2	O	4.357000000000E-01	-9.425000000000E-02	3.755000000000E-01
	O3	O	1.885000000000E-01	-2.178500000000E-01	3.755000000000E-01
	O4	O	-4.357000000000E-01	9.425000000000E-02	-3.755000000000E-01
	O5	O	-3.544000000000E-01	-1.772000000000E-01	-5.000000000000E-01
	O6	O	3.544000000000E-01	1.772000000000E-01	-5.000000000000E-01
	O7	O	-1.982000000000E-01	-2.202000000000E-01	2.835000000000E-01
	O8	O	-4.404000000000E-01	-9.910000000000E-02	-2.835000000000E-01
	O9	O	1.982000000000E-01	2.202000000000E-01	-2.835000000000E-01
	O10	O	4.404000000000E-01	9.910000000000E-02	2.835000000000E-01
	O11	O	-4.082000000000E-01	2.041000000000E-01	3.808000000000E-01
	O12	O	4.082000000000E-01	-2.041000000000E-01	-3.808000000000E-01
	O13	O	-2.155000000000E-01	-2.488500000000E-01	-5.340000000000E-02
	O14	O	-4.977000000000E-01	-1.077500000000E-01	5.340000000000E-02
	O15	O	2.155000000000E-01	2.488500000000E-01	5.340000000000E-02
	O16	O	4.977000000000E-01	1.077500000000E-01	-5.340000000000E-02
	O17	O	4.999999999998E-04	1.809500000000E-01	-8.770000000000E-02
	O18	O	3.619000000000E-01	2.499999999999E-04	8.770000000000E-02
	O19	O	-4.999999999998E-04	-1.809500000000E-01	8.770000000000E-02
	O20	O	-3.619000000000E-01	-2.499999999999E-04	-8.770000000000E-02
	O21	O	-2.441000000000E-01	1.220500000000E-01	-1.079000000000E-01
	O22	O	2.441000000000E-01	-1.220500000000E-01	1.079000000000E-01
	O23	O	-2.421000000000E-01	-1.210500000000E-01	0.000000000000E+00
	O24	O	2.421000000000E-01	1.210500000000E-01	0.000000000000E+00
	Si25	Si	-2.875000000000E-01	-2.438500000000E-01	4.471000000000E-01
	Si26	Si	-4.877000000000E-01	-1.437500000000E-01	-4.471000000000E-01
	Si27	Si	2.875000000000E-01	2.438500000000E-01	-4.471000000000E-01
	Si28	Si	4.877000000000E-01	1.437500000000E-01	4.471000000000E-01
	Si29	Si	-1.617000000000E-01	1.930500000000E-01	-1.563000000000E-01
	Si30	Si	3.861000000000E-01	-8.085000000000E-02	1.563000000000E-01
	Si31	Si	1.617000000000E-01	-1.930500000000E-01	1.563000000000E-01
	Si32	Si	-3.861000000000E-01	8.085000000000E-02	-1.563000000000E-01
	Si33	Si	-1.642000000000E-01	-1.928000000000E-01	7.970000000000E-02
	Si34	Si	-3.856000000000E-01	-8.210000000000E-02	-7.970000000000E-02
	Si35	Si	1.642000000000E-01	1.928000000000E-01	-7.970000000000E-02
	Si36	Si	3.856000000000E-01	8.210000000000E-02	7.970000000000E-02
	O37	O	-3.544000000000E-01	3.228000000000E-01	-5.000000000000E-01
	O38	O	-5.000000000000E-04	3.190500000000E-01	8.770000000000E-02
	O39	O	4.404000000000E-01	-4.009000000000E-01	2.835000000000E-01
	O40	O	-3.619000000000E-01	4.997500000000E-01	-8.770000000000E-02
	O41	O	1.885000000000E-01	2.821500000000E-01	3.755000000000E-01
	O42	O	-2.441000000000E-01	-3.779500000000E-01	-1.079000000000E-01
	O43	O	-4.082000000000E-01	-2.959000000000E-01	3.808000000000E-01
	O44	O	2.441000000000E-01	3.779500000000E-01	1.079000000000E-01
	O45	O	3.544000000000E-01	-3.228000000000E-01	-5.000000000000E-01
	O46	O	-2.421000000000E-01	3.789500000000E-01	0.000000000000E+00
	O47	O	4.082000000000E-01	2.959000000000E-01	-3.808000000000E-01
	O48	O	2.421000000000E-01	-3.789500000000E-01	0.000000000000E+00
	O49	O	4.357000000000E-01	4.057500000000E-01	3.755000000000E-01
	Si50	Si	-2.875000000000E-01	2.561500000000E-01	4.471000000000E-01
	O51	O	-2.155000000000E-01	2.511500000000E-01	-5.340000000000E-02
	Si52	Si	-4.877000000000E-01	3.562500000000E-01	-4.471000000000E-01
	O53	O	-1.982000000000E-01	2.798000000000E-01	2.835000000000E-01
	Si54	Si	2.875000000000E-01	-2.561500000000E-01	-4.471000000000E-01
	O55	O	-4.977000000000E-01	3.922500000000E-01	5.340000000000E-02
	Si56	Si	4.877000000000E-01	-3.562500000000E-01	4.471000000000E-01
	O57	O	-4.357000000000E-01	-4.057500000000E-01	-3.755000000000E-01
	Si58	Si	-1.617000000000E-01	-3.069500000000E-01	-1.563000000000E-01
	O59	O	2.155000000000E-01	-2.511500000000E-01	5.340000000000E-02
	Si60	Si	3.861000000000E-01	4.191500000000E-01	1.563000000000E-01
	O61	O	-4.404000000000E-01	4.009000000000E-01	-2.835000000000E-01
	Si62	Si	1.617000000000E-01	3.069500000000E-01	1.563000000000E-01
	O63	O	4.977000000000E-01	-3.922500000000E-01	-5.340000000000E-02
	Si64	Si	-3.861000000000E-01	-4.191500000000E-01	-1.563000000000E-01
	O65	O	-1.885000000000E-01	-2.821500000000E-01	-3.755000000000E-01
	Si66	Si	-1.642000000000E-01	3.072000000000E-01	7.970000000000E-02
	O67	O	5.000000000001E-04	-3.190500000000E-01	-8.770000000000E-02
	Si68	Si	-3.856000000000E-01	4.179000000000E-01	-7.970000000000E-02
	O69	O	1.982000000000E-01	-2.798000000000E-01	-2.835000000000E-01
	Si70	Si	1.642000000000E-01	-3.072000000000E-01	-7.970000000000E-02
	O71	O	3.619000000000E-01	-4.997500000000E-01	8.770000000000E-02
	Si72	Si	3.856000000000E-01	-4.179000000000E-01	7.970000000000E-02
