data RTH
_chemical_name_common		'RTH'
_cell_length_a		11.36637084
_cell_length_b		22.73274167
_cell_length_c		9.99600000
_cell_angle_alpha		87.044095
_cell_angle_beta		92.955905
_cell_angle_gamma		50.862107
_space group_name_H-M_alt		'P 1'
_space_group_IT_number		1

loop_
	_atom_site_label
	_atom_site_type_symbol
	_atom_site_fract_x
	_atom_site_fract_y
	_atom_site_fract_z
	O1	O	4.535000000000E-01	6.725000000000E-02	3.234000000000E-01
	O2	O	1.345000000000E-01	-2.732500000000E-01	-3.234000000000E-01
	O3	O	-4.535000000000E-01	-6.725000000000E-02	-3.234000000000E-01
	O4	O	-1.345000000000E-01	2.732500000000E-01	3.234000000000E-01
	O5	O	3.349000000000E-01	1.674500000000E-01	-5.000000000000E-01
	O6	O	-3.349000000000E-01	3.325500000000E-01	-5.000000000000E-01
	O7	O	3.536000000000E-01	-2.938000000000E-01	2.551000000000E-01
	O8	O	4.124000000000E-01	1.768000000000E-01	-2.551000000000E-01
	O9	O	-3.536000000000E-01	2.938000000000E-01	-2.551000000000E-01
	O10	O	-4.124000000000E-01	-1.768000000000E-01	2.551000000000E-01
	O11	O	1.588000000000E-01	1.827000000000E-01	2.959000000000E-01
	O12	O	3.654000000000E-01	7.940000000000E-02	-2.959000000000E-01
	O13	O	-1.588000000000E-01	-1.827000000000E-01	-2.959000000000E-01
	O14	O	-3.654000000000E-01	-7.940000000000E-02	2.959000000000E-01
	O15	O	3.456000000000E-01	-8.130000000000E-02	8.040000000000E-02
	O16	O	-1.626000000000E-01	1.728000000000E-01	-8.040000000000E-02
	O17	O	-3.456000000000E-01	8.130000000000E-02	-8.040000000000E-02
	O18	O	1.626000000000E-01	-1.728000000000E-01	8.040000000000E-02
	O19	O	4.379000000000E-01	-2.189500000000E-01	1.501000000000E-01
	O20	O	-4.379000000000E-01	2.189500000000E-01	-1.501000000000E-01
	O21	O	-4.016000000000E-01	2.992000000000E-01	0.000000000000E+00
	O22	O	4.016000000000E-01	2.008000000000E-01	0.000000000000E+00
	O23	O	-3.789000000000E-01	1.565000000000E-02	1.211000000000E-01
	O24	O	3.130000000000E-02	-1.894500000000E-01	-1.211000000000E-01
	O25	O	3.789000000000E-01	-1.565000000000E-02	-1.211000000000E-01
	O26	O	-3.130000000000E-02	1.894500000000E-01	1.211000000000E-01
	O27	O	3.880000000000E-01	1.730000000000E-02	1.257000000000E-01
	O28	O	3.460000000000E-02	1.940000000000E-01	-1.257000000000E-01
	O29	O	-3.880000000000E-01	-1.730000000000E-02	-1.257000000000E-01
	O30	O	-3.460000000000E-02	-1.940000000000E-01	1.257000000000E-01
	O31	O	1.286000000000E-01	6.430000000000E-02	0.000000000000E+00
	O32	O	-1.286000000000E-01	-6.430000000000E-02	0.000000000000E+00
	Si33	Si	3.249000000000E-01	-3.441500000000E-01	3.436000000000E-01
	Si34	Si	3.117000000000E-01	1.624500000000E-01	-3.436000000000E-01
	Si35	Si	-3.249000000000E-01	3.441500000000E-01	-3.436000000000E-01
	Si36	Si	-3.117000000000E-01	-1.624500000000E-01	3.436000000000E-01
	Si37	Si	4.923000000000E-01	-1.695500000000E-01	1.214000000000E-01
	Si38	Si	-3.391000000000E-01	2.461500000000E-01	-1.214000000000E-01
	Si39	Si	-4.923000000000E-01	1.695500000000E-01	-1.214000000000E-01
	Si40	Si	3.391000000000E-01	-2.461500000000E-01	1.214000000000E-01
	Si41	Si	-4.756000000000E-01	5.100000000000E-03	2.165000000000E-01
	Si42	Si	1.020000000000E-02	-2.378000000000E-01	-2.165000000000E-01
	Si43	Si	4.756000000000E-01	-5.100000000000E-03	-2.165000000000E-01
	Si44	Si	-1.020000000000E-02	2.378000000000E-01	2.165000000000E-01
	Si45	Si	3.103000000000E-01	-3.750000000000E-03	2.120000000000E-02
	Si46	Si	-7.500000000000E-03	1.551500000000E-01	-2.120000000000E-02
	Si47	Si	-3.103000000000E-01	3.750000000000E-03	-2.120000000000E-02
	Si48	Si	7.500000000000E-03	-1.551500000000E-01	2.120000000000E-02
	O49	O	1.345000000000E-01	2.267500000000E-01	-3.234000000000E-01
	O50	O	3.789000000000E-01	4.843500000000E-01	-1.211000000000E-01
	O51	O	-1.588000000000E-01	3.173000000000E-01	-2.959000000000E-01
	O52	O	-3.130000000000E-02	-3.105500000000E-01	1.211000000000E-01
	O53	O	3.536000000000E-01	2.062000000000E-01	2.551000000000E-01
	O54	O	3.880000000000E-01	-4.827000000000E-01	1.257000000000E-01
	O55	O	-3.654000000000E-01	4.206000000000E-01	2.959000000000E-01
	O56	O	3.460000000000E-02	-3.060000000000E-01	-1.257000000000E-01
	O57	O	-1.345000000000E-01	-2.267500000000E-01	3.234000000000E-01
	O58	O	-3.880000000000E-01	4.827000000000E-01	-1.257000000000E-01
	O59	O	3.456000000000E-01	4.187000000000E-01	8.040000000000E-02
	O60	O	-3.460000000000E-02	3.060000000000E-01	1.257000000000E-01
	O61	O	4.124000000000E-01	-3.232000000000E-01	-2.551000000000E-01
	O62	O	1.286000000000E-01	-4.357000000000E-01	0.000000000000E+00
	O63	O	-1.626000000000E-01	-3.272000000000E-01	-8.040000000000E-02
	O64	O	-1.286000000000E-01	4.357000000000E-01	0.000000000000E+00
	O65	O	4.535000000000E-01	-4.327500000000E-01	3.234000000000E-01
	Si66	Si	3.249000000000E-01	1.558500000000E-01	3.436000000000E-01
	O67	O	-3.456000000000E-01	-4.187000000000E-01	-8.040000000000E-02
	Si68	Si	3.117000000000E-01	-3.375500000000E-01	-3.436000000000E-01
	O69	O	-3.536000000000E-01	-2.062000000000E-01	-2.551000000000E-01
	Si70	Si	-3.249000000000E-01	-1.558500000000E-01	-3.436000000000E-01
	O71	O	1.626000000000E-01	3.272000000000E-01	8.040000000000E-02
	Si72	Si	-3.117000000000E-01	3.375500000000E-01	3.436000000000E-01
	O73	O	3.349000000000E-01	-3.325500000000E-01	-5.000000000000E-01
	Si74	Si	4.923000000000E-01	3.304500000000E-01	1.214000000000E-01
	O75	O	4.379000000000E-01	2.810500000000E-01	1.501000000000E-01
	Si76	Si	-3.391000000000E-01	-2.538500000000E-01	-1.214000000000E-01
	O77	O	-4.124000000000E-01	3.232000000000E-01	2.551000000000E-01
	Si78	Si	-4.923000000000E-01	-3.304500000000E-01	-1.214000000000E-01
	O79	O	-4.379000000000E-01	-2.810500000000E-01	-1.501000000000E-01
	Si80	Si	3.391000000000E-01	2.538500000000E-01	1.214000000000E-01
	O81	O	-4.535000000000E-01	4.327500000000E-01	-3.234000000000E-01
	Si82	Si	-4.756000000000E-01	-4.949000000000E-01	2.165000000000E-01
	O83	O	-4.016000000000E-01	-2.008000000000E-01	0.000000000000E+00
	Si84	Si	1.020000000000E-02	2.622000000000E-01	-2.165000000000E-01
	O85	O	1.588000000000E-01	-3.173000000000E-01	2.959000000000E-01
	Si86	Si	4.756000000000E-01	4.949000000000E-01	-2.165000000000E-01
	O87	O	4.016000000000E-01	-2.992000000000E-01	0.000000000000E+00
	Si88	Si	-1.020000000000E-02	-2.622000000000E-01	2.165000000000E-01
	O89	O	-3.349000000000E-01	-1.674500000000E-01	-5.000000000000E-01
	Si90	Si	3.103000000000E-01	4.962500000000E-01	2.120000000000E-02
	O91	O	-3.789000000000E-01	-4.843500000000E-01	1.211000000000E-01
	Si92	Si	-7.500000000000E-03	-3.448500000000E-01	-2.120000000000E-02
	O93	O	3.654000000000E-01	-4.206000000000E-01	-2.959000000000E-01
	Si94	Si	-3.103000000000E-01	-4.962500000000E-01	-2.120000000000E-02
	O95	O	3.130000000000E-02	3.105500000000E-01	-1.211000000000E-01
	Si96	Si	7.500000000000E-03	3.448500000000E-01	2.120000000000E-02
