data RUT
_chemical_name_common		'RUT'
_cell_length_a		9.37272602
_cell_length_b		9.37272602
_cell_length_c		24.90800000
_cell_angle_alpha		72.760156
_cell_angle_beta		107.239844
_cell_angle_gamma		89.732001
_space group_name_H-M_alt		'P 1'
_space_group_IT_number		1

loop_
	_atom_site_label
	_atom_site_type_symbol
	_atom_site_fract_x
	_atom_site_fract_y
	_atom_site_fract_z
	O1	O	3.059000000000E-01	-1.790000000000E-02	2.000000000000E-03
	O2	O	-1.790000000000E-02	3.059000000000E-01	-2.000000000000E-03
	O3	O	-3.059000000000E-01	1.790000000000E-02	-2.000000000000E-03
	O4	O	1.790000000000E-02	-3.059000000000E-01	2.000000000000E-03
	O5	O	3.031000000000E-01	-3.031000000000E-01	5.855000000000E-02
	O6	O	-3.031000000000E-01	3.031000000000E-01	-5.855000000000E-02
	O7	O	-4.413000000000E-01	-1.943000000000E-01	5.405000000000E-02
	O8	O	-1.943000000000E-01	-4.413000000000E-01	-5.405000000000E-02
	O9	O	4.413000000000E-01	1.943000000000E-01	-5.405000000000E-02
	O10	O	1.943000000000E-01	4.413000000000E-01	5.405000000000E-02
	O11	O	4.129000000000E-01	-1.179000000000E-01	1.182000000000E-01
	O12	O	-1.179000000000E-01	4.129000000000E-01	-1.182000000000E-01
	O13	O	-4.129000000000E-01	1.179000000000E-01	-1.182000000000E-01
	O14	O	1.179000000000E-01	-4.129000000000E-01	1.182000000000E-01
	O15	O	3.386000000000E-01	-3.386000000000E-01	1.953000000000E-01
	O16	O	-3.386000000000E-01	3.386000000000E-01	-1.953000000000E-01
	O17	O	-4.222000000000E-01	-2.038000000000E-01	2.303000000000E-01
	O18	O	-2.038000000000E-01	-4.222000000000E-01	-2.303000000000E-01
	O19	O	4.222000000000E-01	2.038000000000E-01	-2.303000000000E-01
	O20	O	2.038000000000E-01	4.222000000000E-01	2.303000000000E-01
	O21	O	3.083000000000E-01	-6.190000000000E-02	1.976500000000E-01
	O22	O	-6.190000000000E-02	3.083000000000E-01	-1.976500000000E-01
	O23	O	-3.083000000000E-01	6.190000000000E-02	-1.976500000000E-01
	O24	O	6.190000000000E-02	-3.083000000000E-01	1.976500000000E-01
	O25	O	1.867000000000E-01	1.503000000000E-01	9.675000000000E-02
	O26	O	1.503000000000E-01	1.867000000000E-01	-9.675000000000E-02
	O27	O	-1.867000000000E-01	-1.503000000000E-01	-9.675000000000E-02
	O28	O	-1.503000000000E-01	-1.867000000000E-01	9.675000000000E-02
	O29	O	1.440000000000E-02	-1.440000000000E-02	1.511000000000E-01
	O30	O	-1.440000000000E-02	1.440000000000E-02	-1.511000000000E-01
	O31	O	1.638000000000E-01	1.828000000000E-01	1.953000000000E-01
	O32	O	1.828000000000E-01	1.638000000000E-01	-1.953000000000E-01
	O33	O	-1.638000000000E-01	-1.828000000000E-01	-1.953000000000E-01
	O34	O	-1.828000000000E-01	-1.638000000000E-01	1.953000000000E-01
	O35	O	2.609000000000E-01	2.609000000000E-01	0.000000000000E+00
	O36	O	-2.609000000000E-01	-2.609000000000E-01	0.000000000000E+00
	Si37	Si	3.949000000000E-01	-1.583000000000E-01	5.820000000000E-02
	Si38	Si	-1.583000000000E-01	3.949000000000E-01	-5.820000000000E-02
	Si39	Si	-3.949000000000E-01	1.583000000000E-01	-5.820000000000E-02
	Si40	Si	1.583000000000E-01	-3.949000000000E-01	5.820000000000E-02
	Si41	Si	4.098000000000E-01	-1.804000000000E-01	1.854000000000E-01
	Si42	Si	-1.804000000000E-01	4.098000000000E-01	-1.854000000000E-01
	Si43	Si	-4.098000000000E-01	1.804000000000E-01	-1.854000000000E-01
	Si44	Si	1.804000000000E-01	-4.098000000000E-01	1.854000000000E-01
	Si45	Si	1.683000000000E-01	6.430000000000E-02	1.603000000000E-01
	Si46	Si	6.430000000000E-02	1.683000000000E-01	-1.603000000000E-01
	Si47	Si	-1.683000000000E-01	-6.430000000000E-02	-1.603000000000E-01
	Si48	Si	-6.430000000000E-02	-1.683000000000E-01	1.603000000000E-01
	Si49	Si	1.556000000000E-01	2.900000000000E-01	3.715000000000E-02
	Si50	Si	2.900000000000E-01	1.556000000000E-01	-3.715000000000E-02
	Si51	Si	-1.556000000000E-01	-2.900000000000E-01	-3.715000000000E-02
	Si52	Si	-2.900000000000E-01	-1.556000000000E-01	3.715000000000E-02
	Si53	Si	2.432000000000E-01	2.432000000000E-01	2.500000000000E-01
	Si54	Si	-2.432000000000E-01	-2.432000000000E-01	2.500000000000E-01
	O55	O	1.179000000000E-01	-4.129000000000E-01	-3.818000000000E-01
	O56	O	-1.503000000000E-01	-1.867000000000E-01	-4.032500000000E-01
	O57	O	1.790000000000E-02	-3.059000000000E-01	-4.980000000000E-01
	O58	O	1.440000000000E-02	-1.440000000000E-02	-3.489000000000E-01
	O59	O	3.386000000000E-01	-3.386000000000E-01	-3.047000000000E-01
	O60	O	-1.440000000000E-02	1.440000000000E-02	3.489000000000E-01
	O61	O	-1.943000000000E-01	-4.413000000000E-01	4.459500000000E-01
	O62	O	1.638000000000E-01	1.828000000000E-01	-3.047000000000E-01
	O63	O	-3.386000000000E-01	3.386000000000E-01	3.047000000000E-01
	O64	O	1.828000000000E-01	1.638000000000E-01	3.047000000000E-01
	O65	O	3.059000000000E-01	-1.790000000000E-02	-4.980000000000E-01
	O66	O	-1.638000000000E-01	-1.828000000000E-01	3.047000000000E-01
	O67	O	-4.222000000000E-01	-2.038000000000E-01	-2.697000000000E-01
	O68	O	-1.828000000000E-01	-1.638000000000E-01	-3.047000000000E-01
	O69	O	4.413000000000E-01	1.943000000000E-01	4.459500000000E-01
	O70	O	2.609000000000E-01	2.609000000000E-01	-5.000000000000E-01
	O71	O	-2.038000000000E-01	-4.222000000000E-01	2.697000000000E-01
	O72	O	-2.609000000000E-01	-2.609000000000E-01	-5.000000000000E-01
	O73	O	3.031000000000E-01	-3.031000000000E-01	-4.414500000000E-01
	Si74	Si	3.949000000000E-01	-1.583000000000E-01	-4.418000000000E-01
	O75	O	4.222000000000E-01	2.038000000000E-01	2.697000000000E-01
	Si76	Si	-1.583000000000E-01	3.949000000000E-01	4.418000000000E-01
	O77	O	1.943000000000E-01	4.413000000000E-01	-4.459500000000E-01
	Si78	Si	-3.949000000000E-01	1.583000000000E-01	4.418000000000E-01
	O79	O	2.038000000000E-01	4.222000000000E-01	-2.697000000000E-01
	Si80	Si	1.583000000000E-01	-3.949000000000E-01	-4.418000000000E-01
	O81	O	-3.059000000000E-01	1.790000000000E-02	4.980000000000E-01
	Si82	Si	4.098000000000E-01	-1.804000000000E-01	-3.146000000000E-01
	O83	O	3.083000000000E-01	-6.190000000000E-02	-3.023500000000E-01
	Si84	Si	-1.804000000000E-01	4.098000000000E-01	3.146000000000E-01
	O85	O	4.129000000000E-01	-1.179000000000E-01	-3.818000000000E-01
	Si86	Si	-4.098000000000E-01	1.804000000000E-01	3.146000000000E-01
	O87	O	-6.190000000000E-02	3.083000000000E-01	3.023500000000E-01
	Si88	Si	1.804000000000E-01	-4.098000000000E-01	-3.146000000000E-01
	O89	O	-3.031000000000E-01	3.031000000000E-01	4.414500000000E-01
	Si90	Si	1.683000000000E-01	6.430000000000E-02	-3.397000000000E-01
	O91	O	-3.083000000000E-01	6.190000000000E-02	3.023500000000E-01
	Si92	Si	6.430000000000E-02	1.683000000000E-01	3.397000000000E-01
	O93	O	-1.179000000000E-01	4.129000000000E-01	3.818000000000E-01
	Si94	Si	-1.683000000000E-01	-6.430000000000E-02	3.397000000000E-01
	O95	O	6.190000000000E-02	-3.083000000000E-01	-3.023500000000E-01
	Si96	Si	-6.430000000000E-02	-1.683000000000E-01	-3.397000000000E-01
	O97	O	-1.790000000000E-02	3.059000000000E-01	4.980000000000E-01
	Si98	Si	1.556000000000E-01	2.900000000000E-01	-4.628500000000E-01
	O99	O	1.867000000000E-01	1.503000000000E-01	-4.032500000000E-01
	Si100	Si	2.900000000000E-01	1.556000000000E-01	4.628500000000E-01
	O101	O	-4.129000000000E-01	1.179000000000E-01	3.818000000000E-01
	Si102	Si	-1.556000000000E-01	-2.900000000000E-01	4.628500000000E-01
	O103	O	1.503000000000E-01	1.867000000000E-01	4.032500000000E-01
	Si104	Si	-2.900000000000E-01	-1.556000000000E-01	-4.628500000000E-01
	O105	O	-4.413000000000E-01	-1.943000000000E-01	-4.459500000000E-01
	Si106	Si	2.432000000000E-01	2.432000000000E-01	-2.500000000000E-01
	O107	O	-1.867000000000E-01	-1.503000000000E-01	4.032500000000E-01
	Si108	Si	-2.432000000000E-01	-2.432000000000E-01	-2.500000000000E-01
