data RWR
_chemical_name_common		'RWR'
_cell_length_a		14.74694690
_cell_length_b		14.74694690
_cell_length_c		29.49389381
_cell_angle_alpha		149.305910
_cell_angle_beta		149.305910
_cell_angle_gamma		43.961216
_space group_name_H-M_alt		'P 1'
_space_group_IT_number		1

loop_
	_atom_site_label
	_atom_site_type_symbol
	_atom_site_fract_x
	_atom_site_fract_y
	_atom_site_fract_z
	O1	O	2.397000000000E-01	1.265000000000E-01	2.256000000000E-01
	O2	O	-3.247000000000E-01	-2.115000000000E-01	2.744000000000E-01
	O3	O	1.030000000000E-02	-3.850000000000E-02	1.934000000000E-01
	O4	O	-4.253000000000E-01	-3.765000000000E-01	-1.934000000000E-01
	O5	O	-1.265000000000E-01	-2.397000000000E-01	-2.256000000000E-01
	O6	O	2.115000000000E-01	3.247000000000E-01	2.256000000000E-01
	O7	O	3.850000000000E-02	-1.030000000000E-02	3.066000000000E-01
	O8	O	3.765000000000E-01	4.253000000000E-01	1.934000000000E-01
	O9	O	1.030000000000E-02	-3.765000000000E-01	2.440000000000E-02
	O10	O	-4.253000000000E-01	-3.850000000000E-02	-2.440000000000E-02
	O11	O	2.397000000000E-01	-2.115000000000E-01	5.660000000000E-02
	O12	O	-3.247000000000E-01	1.265000000000E-01	4.434000000000E-01
	O13	O	3.765000000000E-01	-1.030000000000E-02	4.756000000000E-01
	O14	O	3.850000000000E-02	4.253000000000E-01	2.440000000000E-02
	O15	O	2.115000000000E-01	-2.397000000000E-01	-5.660000000000E-02
	O16	O	-1.265000000000E-01	3.247000000000E-01	5.660000000000E-02
	O17	O	-4.402000000000E-01	2.716000000000E-01	-3.559000000000E-01
	O18	O	-1.660000000000E-02	2.716000000000E-01	-1.441000000000E-01
	O19	O	-3.098000000000E-01	4.784000000000E-01	1.059000000000E-01
	O20	O	2.666000000000E-01	4.784000000000E-01	-1.059000000000E-01
	O21	O	-2.716000000000E-01	4.402000000000E-01	-1.441000000000E-01
	O22	O	-2.716000000000E-01	1.660000000000E-02	1.441000000000E-01
	O23	O	-4.784000000000E-01	3.098000000000E-01	3.941000000000E-01
	O24	O	-4.784000000000E-01	-2.666000000000E-01	1.059000000000E-01
	O25	O	-6.000000000000E-02	-6.000000000000E-02	-1.193901042389E-17
	O26	O	3.100000000000E-01	-1.900000000000E-01	2.500000000000E-01
	O27	O	6.000000000000E-02	6.000000000000E-02	1.084821467909E-16
	O28	O	1.900000000000E-01	-3.100000000000E-01	2.500000000000E-01
	O29	O	-3.750000000000E-01	-1.250000000000E-01	-1.250000000000E-01
	O30	O	1.250000000000E-01	-1.250000000000E-01	1.250000000000E-01
	O31	O	1.250000000000E-01	3.750000000000E-01	1.250000000000E-01
	O32	O	1.250000000000E-01	-1.250000000000E-01	-1.250000000000E-01
	Si33	Si	-2.719000000000E-01	-6.780000000000E-02	-1.020500000000E-01
	Si34	Si	1.363000000000E-01	-6.780000000000E-02	1.020500000000E-01
	Si35	Si	-4.781000000000E-01	-1.822000000000E-01	3.520500000000E-01
	Si36	Si	1.137000000000E-01	-1.822000000000E-01	1.479500000000E-01
	Si37	Si	6.780000000000E-02	2.719000000000E-01	1.020500000000E-01
	Si38	Si	6.780000000000E-02	-1.363000000000E-01	-1.020500000000E-01
	Si39	Si	1.822000000000E-01	4.781000000000E-01	1.479500000000E-01
	Si40	Si	1.822000000000E-01	-1.137000000000E-01	3.520500000000E-01
	Si41	Si	-5.890000000000E-02	4.411000000000E-01	-5.890000000000E-02
	Si42	Si	-4.411000000000E-01	5.890000000000E-02	5.890000000000E-02
	Si43	Si	3.089000000000E-01	-3.089000000000E-01	-2.547239519440E-17
	Si44	Si	-3.089000000000E-01	3.089000000000E-01	5.000000000000E-01
	Si45	Si	3.089000000000E-01	3.089000000000E-01	3.089000000000E-01
	Si46	Si	-3.089000000000E-01	-3.089000000000E-01	1.911000000000E-01
	Si47	Si	-5.890000000000E-02	5.890000000000E-02	2.500000000000E-01
	Si48	Si	-4.411000000000E-01	4.411000000000E-01	2.500000000000E-01
	O49	O	-3.247000000000E-01	-2.115000000000E-01	-2.256000000000E-01
	O50	O	-6.000000000000E-02	-6.000000000000E-02	5.000000000000E-01
	O51	O	3.765000000000E-01	-1.030000000000E-02	-2.440000000000E-02
	O52	O	3.100000000000E-01	-1.900000000000E-01	-2.500000000000E-01
	O53	O	3.850000000000E-02	-1.030000000000E-02	-1.934000000000E-01
	O54	O	6.000000000000E-02	6.000000000000E-02	5.000000000000E-01
	O55	O	3.850000000000E-02	4.253000000000E-01	-4.756000000000E-01
	O56	O	1.900000000000E-01	-3.100000000000E-01	-2.500000000000E-01
	O57	O	-4.253000000000E-01	-3.765000000000E-01	3.066000000000E-01
	O58	O	-3.750000000000E-01	-1.250000000000E-01	3.750000000000E-01
	O59	O	2.115000000000E-01	-2.397000000000E-01	4.434000000000E-01
	O60	O	1.250000000000E-01	-1.250000000000E-01	-3.750000000000E-01
	O61	O	3.765000000000E-01	4.253000000000E-01	-3.066000000000E-01
	O62	O	1.250000000000E-01	3.750000000000E-01	-3.750000000000E-01
	O63	O	-1.265000000000E-01	3.247000000000E-01	-4.434000000000E-01
	O64	O	1.250000000000E-01	-1.250000000000E-01	3.750000000000E-01
	O65	O	2.397000000000E-01	1.265000000000E-01	-2.744000000000E-01
	Si66	Si	-2.719000000000E-01	-6.780000000000E-02	3.979500000000E-01
	O67	O	-4.402000000000E-01	2.716000000000E-01	1.441000000000E-01
	Si68	Si	1.363000000000E-01	-6.780000000000E-02	-3.979500000000E-01
	O69	O	1.030000000000E-02	-3.765000000000E-01	-4.756000000000E-01
	Si70	Si	-4.781000000000E-01	-1.822000000000E-01	-1.479500000000E-01
	O71	O	-1.660000000000E-02	2.716000000000E-01	3.559000000000E-01
	Si72	Si	1.137000000000E-01	-1.822000000000E-01	-3.520500000000E-01
	O73	O	-1.265000000000E-01	-2.397000000000E-01	2.744000000000E-01
	Si74	Si	6.780000000000E-02	2.719000000000E-01	-3.979500000000E-01
	O75	O	-3.098000000000E-01	4.784000000000E-01	-3.941000000000E-01
	Si76	Si	6.780000000000E-02	-1.363000000000E-01	3.979500000000E-01
	O77	O	-4.253000000000E-01	-3.850000000000E-02	4.756000000000E-01
	Si78	Si	1.822000000000E-01	4.781000000000E-01	-3.520500000000E-01
	O79	O	2.666000000000E-01	4.784000000000E-01	3.941000000000E-01
	Si80	Si	1.822000000000E-01	-1.137000000000E-01	-1.479500000000E-01
	O81	O	1.030000000000E-02	-3.850000000000E-02	-3.066000000000E-01
	Si82	Si	-5.890000000000E-02	4.411000000000E-01	4.411000000000E-01
	O83	O	-2.716000000000E-01	4.402000000000E-01	3.559000000000E-01
	Si84	Si	-4.411000000000E-01	5.890000000000E-02	-4.411000000000E-01
	O85	O	2.397000000000E-01	-2.115000000000E-01	-4.434000000000E-01
	Si86	Si	3.089000000000E-01	-3.089000000000E-01	5.000000000000E-01
	O87	O	-2.716000000000E-01	1.660000000000E-02	-3.559000000000E-01
	Si88	Si	-3.089000000000E-01	3.089000000000E-01	8.833957394392E-18
	O89	O	2.115000000000E-01	3.247000000000E-01	-2.744000000000E-01
	Si90	Si	3.089000000000E-01	3.089000000000E-01	-1.911000000000E-01
	O91	O	-4.784000000000E-01	3.098000000000E-01	-1.059000000000E-01
	Si92	Si	-3.089000000000E-01	-3.089000000000E-01	-3.089000000000E-01
	O93	O	-3.247000000000E-01	1.265000000000E-01	-5.660000000000E-02
	Si94	Si	-5.890000000000E-02	5.890000000000E-02	-2.500000000000E-01
	O95	O	-4.784000000000E-01	-2.666000000000E-01	-3.941000000000E-01
	Si96	Si	-4.411000000000E-01	4.411000000000E-01	-2.500000000000E-01
