data SAF
_chemical_name_common		'SAF'
_cell_length_a		16.15362549
_cell_length_b		16.15362549
_cell_length_c		16.15362549
_cell_angle_alpha		125.833481
_cell_angle_beta		63.070969
_cell_angle_gamma		150.164226
_space group_name_H-M_alt		'P 1'
_space_group_IT_number		1

loop_
	_atom_site_label
	_atom_site_type_symbol
	_atom_site_fract_x
	_atom_site_fract_y
	_atom_site_fract_z
	O1	O	-4.528000000000E-01	-2.500000000000E-01	-2.028000000000E-01
	O2	O	-4.720000000000E-02	-2.500000000000E-01	2.028000000000E-01
	O3	O	4.528000000000E-01	2.500000000000E-01	2.028000000000E-01
	O4	O	4.720000000000E-02	2.500000000000E-01	-2.028000000000E-01
	O5	O	-4.826000000000E-01	-4.722000000000E-01	-3.562000000000E-01
	O6	O	-1.160000000000E-01	-1.264000000000E-01	3.562000000000E-01
	O7	O	-1.740000000000E-02	-3.736000000000E-01	1.040000000000E-02
	O8	O	-3.840000000000E-01	-2.780000000000E-02	-1.040000000000E-02
	O9	O	4.826000000000E-01	4.722000000000E-01	3.562000000000E-01
	O10	O	1.160000000000E-01	1.264000000000E-01	-3.562000000000E-01
	O11	O	1.740000000000E-02	3.736000000000E-01	-1.040000000000E-02
	O12	O	3.840000000000E-01	2.780000000000E-02	1.040000000000E-02
	O13	O	-4.795000000000E-01	-3.298000000000E-01	-3.923000000000E-01
	O14	O	6.250000000000E-02	-8.720000000000E-02	3.923000000000E-01
	O15	O	-2.050000000000E-02	-4.128000000000E-01	1.497000000000E-01
	O16	O	4.375000000000E-01	-1.702000000000E-01	-1.497000000000E-01
	O17	O	4.795000000000E-01	3.298000000000E-01	3.923000000000E-01
	O18	O	-6.250000000000E-02	8.720000000000E-02	-3.923000000000E-01
	O19	O	2.050000000000E-02	4.128000000000E-01	-1.497000000000E-01
	O20	O	-4.375000000000E-01	1.702000000000E-01	1.497000000000E-01
	O21	O	2.600000000000E-01	4.157000000000E-01	-3.243000000000E-01
	O22	O	-2.600000000000E-01	-4.157000000000E-01	3.243000000000E-01
	O23	O	2.400000000000E-01	-8.430000000000E-02	1.557000000000E-01
	O24	O	-2.400000000000E-01	8.430000000000E-02	-1.557000000000E-01
	O25	O	-7.060000000000E-02	1.133000000000E-01	4.669000000000E-01
	O26	O	-3.536000000000E-01	4.625000000000E-01	-4.669000000000E-01
	O27	O	-4.294000000000E-01	3.750000000000E-02	1.839000000000E-01
	O28	O	-1.464000000000E-01	3.867000000000E-01	-1.839000000000E-01
	O29	O	7.060000000000E-02	-1.133000000000E-01	-4.669000000000E-01
	O30	O	3.536000000000E-01	-4.625000000000E-01	4.669000000000E-01
	O31	O	4.294000000000E-01	-3.750000000000E-02	-1.839000000000E-01
	O32	O	1.464000000000E-01	-3.867000000000E-01	1.839000000000E-01
	O33	O	-9.070000000000E-02	2.500000000000E-01	-3.407000000000E-01
	O34	O	-4.093000000000E-01	2.500000000000E-01	3.407000000000E-01
	O35	O	9.070000000000E-02	-2.500000000000E-01	3.407000000000E-01
	O36	O	4.093000000000E-01	-2.500000000000E-01	-3.407000000000E-01
	O37	O	-3.426000000000E-01	-1.089000000000E-01	-4.515000000000E-01
	O38	O	3.426000000000E-01	1.089000000000E-01	4.515000000000E-01
	O39	O	-1.574000000000E-01	3.911000000000E-01	2.337000000000E-01
	O40	O	1.574000000000E-01	-3.911000000000E-01	-2.337000000000E-01
	O41	O	1.553000000000E-01	1.953000000000E-01	3.506000000000E-01
	O42	O	-1.553000000000E-01	-1.953000000000E-01	-3.506000000000E-01
	O43	O	3.447000000000E-01	-3.047000000000E-01	4.000000000000E-02
	O44	O	-3.447000000000E-01	3.047000000000E-01	-4.000000000000E-02
	O45	O	3.181000000000E-01	4.026000000000E-01	2.647000000000E-01
	O46	O	1.379000000000E-01	5.340000000000E-02	-2.647000000000E-01
	O47	O	1.819000000000E-01	4.466000000000E-01	8.450000000000E-02
	O48	O	3.621000000000E-01	9.740000000000E-02	-8.450000000000E-02
	O49	O	-3.181000000000E-01	-4.026000000000E-01	-2.647000000000E-01
	O50	O	-1.379000000000E-01	-5.340000000000E-02	2.647000000000E-01
	O51	O	-1.819000000000E-01	-4.466000000000E-01	-8.450000000000E-02
	O52	O	-3.621000000000E-01	-9.740000000000E-02	8.450000000000E-02
	O53	O	3.207000000000E-01	2.500000000000E-01	7.070000000000E-02
	O54	O	1.793000000000E-01	2.500000000000E-01	-7.070000000000E-02
	O55	O	-3.207000000000E-01	-2.500000000000E-01	-7.070000000000E-02
	O56	O	-1.793000000000E-01	-2.500000000000E-01	7.070000000000E-02
	O57	O	5.820000000000E-02	-1.072000000000E-01	-4.900000000000E-02
	O58	O	-5.820000000000E-02	1.072000000000E-01	4.900000000000E-02
	O59	O	4.418000000000E-01	3.928000000000E-01	-1.654000000000E-01
	O60	O	-4.418000000000E-01	-3.928000000000E-01	1.654000000000E-01
	O61	O	2.500000000000E-01	1.295000000000E-01	-1.205000000000E-01
	O62	O	2.500000000000E-01	3.705000000000E-01	1.205000000000E-01
	O63	O	-2.500000000000E-01	-1.295000000000E-01	1.205000000000E-01
	O64	O	-2.500000000000E-01	-3.705000000000E-01	-1.205000000000E-01
	Si65	Si	4.611000000000E-01	-4.100000000000E-01	-3.193000000000E-01
	Si66	Si	-9.070000000000E-02	-2.196000000000E-01	3.193000000000E-01
	Si67	Si	3.890000000000E-02	-2.804000000000E-01	1.289000000000E-01
	Si68	Si	-4.093000000000E-01	-9.000000000000E-02	-1.289000000000E-01
	Si69	Si	-4.611000000000E-01	4.100000000000E-01	3.193000000000E-01
	Si70	Si	9.070000000000E-02	2.196000000000E-01	-3.193000000000E-01
	Si71	Si	-3.890000000000E-02	2.804000000000E-01	-1.289000000000E-01
	Si72	Si	4.093000000000E-01	9.000000000000E-02	1.289000000000E-01
	Si73	Si	-1.412000000000E-01	8.620000000000E-02	-4.286000000000E-01
	Si74	Si	-4.852000000000E-01	2.874000000000E-01	4.286000000000E-01
	Si75	Si	-3.588000000000E-01	2.126000000000E-01	2.274000000000E-01
	Si76	Si	-1.480000000000E-02	4.138000000000E-01	-2.274000000000E-01
	Si77	Si	1.412000000000E-01	-8.620000000000E-02	4.286000000000E-01
	Si78	Si	4.852000000000E-01	-2.874000000000E-01	-4.286000000000E-01
	Si79	Si	3.588000000000E-01	-2.126000000000E-01	-2.274000000000E-01
	Si80	Si	1.480000000000E-02	-4.138000000000E-01	2.274000000000E-01
	Si81	Si	3.272000000000E-01	4.017000000000E-01	3.593000000000E-01
	Si82	Si	4.240000000000E-02	-3.210000000000E-02	-3.593000000000E-01
	Si83	Si	1.728000000000E-01	-4.679000000000E-01	7.450000000000E-02
	Si84	Si	4.576000000000E-01	9.830000000000E-02	-7.450000000000E-02
	Si85	Si	-3.272000000000E-01	-4.017000000000E-01	-3.593000000000E-01
	Si86	Si	-4.240000000000E-02	3.210000000000E-02	3.593000000000E-01
	Si87	Si	-1.728000000000E-01	4.679000000000E-01	-7.450000000000E-02
	Si88	Si	-4.576000000000E-01	-9.830000000000E-02	7.450000000000E-02
	Si89	Si	2.471000000000E-01	9.240000000000E-02	-4.530000000000E-02
	Si90	Si	1.377000000000E-01	2.924000000000E-01	4.530000000000E-02
	Si91	Si	2.529000000000E-01	2.076000000000E-01	-1.547000000000E-01
	Si92	Si	3.623000000000E-01	4.076000000000E-01	1.547000000000E-01
	Si93	Si	-2.471000000000E-01	-9.240000000000E-02	4.530000000000E-02
	Si94	Si	-1.377000000000E-01	-2.924000000000E-01	-4.530000000000E-02
	Si95	Si	-2.529000000000E-01	-2.076000000000E-01	1.547000000000E-01
	Si96	Si	-3.623000000000E-01	-4.076000000000E-01	-1.547000000000E-01
