data SAO
_chemical_name_common		'SAO'
_cell_length_a		14.48337877
_cell_length_b		14.48337877
_cell_length_c		14.48337877
_cell_angle_alpha		124.715990
_cell_angle_beta		124.715990
_cell_angle_gamma		82.008981
_space group_name_H-M_alt		'P 1'
_space_group_IT_number		1

loop_
	_atom_site_label
	_atom_site_type_symbol
	_atom_site_fract_x
	_atom_site_fract_y
	_atom_site_fract_z
	O1	O	-1.580000000000E-02	-3.518000000000E-01	-3.620000000000E-02
	O2	O	-3.156000000000E-01	2.040000000000E-02	3.620000000000E-02
	O3	O	3.518000000000E-01	1.580000000000E-02	3.620000000000E-02
	O4	O	-2.040000000000E-02	3.156000000000E-01	-3.620000000000E-02
	O5	O	-1.580000000000E-02	2.040000000000E-02	3.360000000000E-01
	O6	O	-3.156000000000E-01	-3.518000000000E-01	-3.360000000000E-01
	O7	O	-2.040000000000E-02	1.580000000000E-02	-3.360000000000E-01
	O8	O	3.518000000000E-01	3.156000000000E-01	3.360000000000E-01
	O9	O	1.304000000000E-01	-1.773000000000E-01	6.090000000000E-02
	O10	O	-2.382000000000E-01	6.950000000000E-02	-6.090000000000E-02
	O11	O	1.773000000000E-01	-1.304000000000E-01	-6.090000000000E-02
	O12	O	-6.950000000000E-02	2.382000000000E-01	6.090000000000E-02
	O13	O	1.304000000000E-01	6.950000000000E-02	3.077000000000E-01
	O14	O	-2.382000000000E-01	-1.773000000000E-01	-3.077000000000E-01
	O15	O	-6.950000000000E-02	-1.304000000000E-01	-3.077000000000E-01
	O16	O	1.773000000000E-01	2.382000000000E-01	3.077000000000E-01
	O17	O	-9.330000000000E-02	4.790000000000E-02	1.412000000000E-01
	O18	O	-9.330000000000E-02	-2.345000000000E-01	-1.412000000000E-01
	O19	O	-4.790000000000E-02	9.330000000000E-02	-1.412000000000E-01
	O20	O	2.345000000000E-01	9.330000000000E-02	1.412000000000E-01
	O21	O	-2.190000000000E-02	-1.370000000000E-01	1.151000000000E-01
	O22	O	-2.521000000000E-01	-1.370000000000E-01	-1.151000000000E-01
	O23	O	1.370000000000E-01	2.190000000000E-02	-1.151000000000E-01
	O24	O	1.370000000000E-01	2.521000000000E-01	1.151000000000E-01
	O25	O	-2.066000000000E-01	8.580000000000E-02	2.924000000000E-01
	O26	O	-2.066000000000E-01	-4.990000000000E-01	-2.924000000000E-01
	O27	O	-8.580000000000E-02	2.066000000000E-01	-2.924000000000E-01
	O28	O	4.990000000000E-01	2.066000000000E-01	2.924000000000E-01
	O29	O	-3.999999999998E-04	4.892000000000E-01	-2.390000000000E-01
	O30	O	-2.718000000000E-01	2.386000000000E-01	2.390000000000E-01
	O31	O	-4.892000000000E-01	3.999999999999E-04	2.390000000000E-01
	O32	O	-2.386000000000E-01	2.718000000000E-01	-2.390000000000E-01
	O33	O	-3.999999999999E-04	2.386000000000E-01	-4.896000000000E-01
	O34	O	-2.718000000000E-01	4.892000000000E-01	4.896000000000E-01
	O35	O	-2.386000000000E-01	4.000000000000E-04	4.896000000000E-01
	O36	O	-4.892000000000E-01	2.718000000000E-01	-4.896000000000E-01
	O37	O	-7.100000000000E-02	7.100000000000E-02	5.000000000000E-01
	O38	O	-4.290000000000E-01	4.290000000000E-01	5.000000000000E-01
	O39	O	-7.100000000000E-02	4.290000000000E-01	-1.420000000000E-01
	O40	O	-4.290000000000E-01	7.100000000000E-02	1.420000000000E-01
	O41	O	1.618000000000E-01	-3.403000000000E-01	-1.255000000000E-01
	O42	O	-2.148000000000E-01	2.873000000000E-01	1.255000000000E-01
	O43	O	3.403000000000E-01	-1.618000000000E-01	1.255000000000E-01
	O44	O	-2.873000000000E-01	2.148000000000E-01	-1.255000000000E-01
	O45	O	1.618000000000E-01	2.873000000000E-01	-4.979000000000E-01
	O46	O	-2.148000000000E-01	-3.403000000000E-01	4.979000000000E-01
	O47	O	-2.873000000000E-01	-1.618000000000E-01	4.979000000000E-01
	O48	O	3.403000000000E-01	2.148000000000E-01	-4.979000000000E-01
	O49	O	-5.020000000000E-02	3.070000000000E-01	3.572000000000E-01
	O50	O	-5.020000000000E-02	-4.074000000000E-01	-3.572000000000E-01
	O51	O	-3.070000000000E-01	5.020000000000E-02	-3.572000000000E-01
	O52	O	4.074000000000E-01	5.020000000000E-02	3.572000000000E-01
	O53	O	8.920000000000E-02	4.559000000000E-01	-3.667000000000E-01
	O54	O	-1.774000000000E-01	4.559000000000E-01	3.667000000000E-01
	O55	O	-4.559000000000E-01	-8.920000000000E-02	3.667000000000E-01
	O56	O	-4.559000000000E-01	1.774000000000E-01	-3.667000000000E-01
	Si57	Si	-1.000000000001E-04	-2.250000000000E-01	-5.000000000001E-04
	Si58	Si	-2.245000000000E-01	4.000000000001E-04	5.000000000001E-04
	Si59	Si	2.250000000000E-01	9.999999999998E-05	5.000000000001E-04
	Si60	Si	-4.000000000000E-04	2.245000000000E-01	-5.000000000001E-04
	Si61	Si	-1.000000000001E-04	4.000000000001E-04	2.249000000000E-01
	Si62	Si	-2.245000000000E-01	-2.250000000000E-01	-2.249000000000E-01
	Si63	Si	-4.000000000000E-04	9.999999999998E-05	-2.249000000000E-01
	Si64	Si	2.250000000000E-01	2.245000000000E-01	2.249000000000E-01
	Si65	Si	5.040000000000E-02	-4.499000000000E-01	-2.717000000000E-01
	Si66	Si	-1.782000000000E-01	3.221000000000E-01	2.717000000000E-01
	Si67	Si	4.499000000000E-01	-5.040000000000E-02	2.717000000000E-01
	Si68	Si	-3.221000000000E-01	1.782000000000E-01	-2.717000000000E-01
	Si69	Si	5.040000000000E-02	3.221000000000E-01	-4.997000000000E-01
	Si70	Si	-1.782000000000E-01	-4.499000000000E-01	4.997000000000E-01
	Si71	Si	-3.221000000000E-01	-5.040000000000E-02	4.997000000000E-01
	Si72	Si	4.499000000000E-01	1.782000000000E-01	-4.997000000000E-01
	Si73	Si	-3.058000000000E-01	-4.840000000000E-01	-4.108000000000E-01
	Si74	Si	-7.320000000000E-02	1.050000000000E-01	4.108000000000E-01
	Si75	Si	4.840000000000E-01	3.058000000000E-01	4.108000000000E-01
	Si76	Si	-1.050000000000E-01	7.320000000000E-02	-4.108000000000E-01
	Si77	Si	-3.058000000000E-01	1.050000000000E-01	1.782000000000E-01
	Si78	Si	-7.320000000000E-02	-4.840000000000E-01	-1.782000000000E-01
	Si79	Si	-1.050000000000E-01	3.058000000000E-01	-1.782000000000E-01
	Si80	Si	4.840000000000E-01	7.320000000000E-02	1.782000000000E-01
	Si81	Si	-2.030000000000E-01	2.030000000000E-01	6.574025332085E-18
	Si82	Si	2.030000000000E-01	-2.030000000000E-01	-6.574025332085E-18
	Si83	Si	-2.030000000000E-01	-2.030000000000E-01	-4.060000000000E-01
	Si84	Si	2.030000000000E-01	2.030000000000E-01	4.060000000000E-01
