data SAS
_chemical_name_common		'SAS'
_cell_length_a		11.40072373
_cell_length_b		11.40072373
_cell_length_c		22.80144745
_cell_angle_alpha		102.002689
_cell_angle_beta		102.002689
_cell_angle_gamma		125.738362
_space group_name_H-M_alt		'P 1'
_space_group_IT_number		1

loop_
	_atom_site_label
	_atom_site_type_symbol
	_atom_site_fract_x
	_atom_site_fract_y
	_atom_site_fract_z
	O1	O	-3.545896224335E-18	2.418000000000E-01	1.209000000000E-01
	O2	O	1.370037353373E-17	-2.418000000000E-01	-1.209000000000E-01
	O3	O	-2.418000000000E-01	8.543379374493E-17	-1.209000000000E-01
	O4	O	2.418000000000E-01	-8.543379374493E-17	1.209000000000E-01
	O5	O	1.690000000000E-01	1.690000000000E-01	1.690000000000E-01
	O6	O	-1.690000000000E-01	-1.690000000000E-01	-1.690000000000E-01
	O7	O	-1.690000000000E-01	1.690000000000E-01	4.281412558750E-18
	O8	O	1.690000000000E-01	-1.690000000000E-01	-4.281412558750E-18
	O9	O	-3.390000000000E-01	2.865000000000E-01	1.872500000000E-01
	O10	O	-8.800000000000E-02	2.865000000000E-01	-1.872500000000E-01
	O11	O	3.390000000000E-01	-2.865000000000E-01	-1.872500000000E-01
	O12	O	8.800000000000E-02	-2.865000000000E-01	1.872500000000E-01
	O13	O	-2.865000000000E-01	3.390000000000E-01	-1.872500000000E-01
	O14	O	-2.865000000000E-01	8.800000000000E-02	1.872500000000E-01
	O15	O	2.865000000000E-01	-3.390000000000E-01	1.872500000000E-01
	O16	O	2.865000000000E-01	-8.800000000000E-02	-1.872500000000E-01
	O17	O	-2.648000000000E-01	1.984000000000E-01	9.450000000000E-02
	O18	O	9.400000000000E-03	-4.538000000000E-01	-9.450000000000E-02
	O19	O	2.648000000000E-01	4.538000000000E-01	2.316000000000E-01
	O20	O	-9.400000000000E-03	-1.984000000000E-01	-2.316000000000E-01
	O21	O	-1.984000000000E-01	2.648000000000E-01	-9.450000000000E-02
	O22	O	4.538000000000E-01	-9.400000000000E-03	9.450000000000E-02
	O23	O	-4.538000000000E-01	-2.648000000000E-01	-2.316000000000E-01
	O24	O	1.984000000000E-01	9.400000000000E-03	2.316000000000E-01
	O25	O	2.648000000000E-01	-1.984000000000E-01	-9.450000000000E-02
	O26	O	-9.400000000000E-03	4.538000000000E-01	9.450000000000E-02
	O27	O	-2.648000000000E-01	-4.538000000000E-01	-2.316000000000E-01
	O28	O	9.400000000000E-03	1.984000000000E-01	2.316000000000E-01
	O29	O	1.984000000000E-01	-2.648000000000E-01	9.450000000000E-02
	O30	O	-4.538000000000E-01	9.400000000000E-03	-9.450000000000E-02
	O31	O	4.538000000000E-01	2.648000000000E-01	2.316000000000E-01
	O32	O	-1.984000000000E-01	-9.400000000000E-03	-2.316000000000E-01
	Si33	Si	-1.107000000000E-01	2.662000000000E-01	7.775000000000E-02
	Si34	Si	1.107000000000E-01	-2.662000000000E-01	-7.775000000000E-02
	Si35	Si	1.107000000000E-01	2.662000000000E-01	1.884500000000E-01
	Si36	Si	-1.107000000000E-01	-2.662000000000E-01	-1.884500000000E-01
	Si37	Si	-2.662000000000E-01	1.107000000000E-01	-7.775000000000E-02
	Si38	Si	2.662000000000E-01	-1.107000000000E-01	7.775000000000E-02
	Si39	Si	-2.662000000000E-01	-1.107000000000E-01	-1.884500000000E-01
	Si40	Si	2.662000000000E-01	1.107000000000E-01	1.884500000000E-01
	Si41	Si	-3.590000000000E-01	3.590000000000E-01	2.500000000000E-01
	Si42	Si	-1.410000000000E-01	1.410000000000E-01	2.500000000000E-01
	Si43	Si	3.590000000000E-01	-1.410000000000E-01	-1.410000000000E-01
	Si44	Si	1.410000000000E-01	-3.590000000000E-01	1.410000000000E-01
	Si45	Si	3.590000000000E-01	-3.590000000000E-01	2.500000000000E-01
	Si46	Si	1.410000000000E-01	-1.410000000000E-01	2.500000000000E-01
	Si47	Si	-3.590000000000E-01	1.410000000000E-01	1.410000000000E-01
	Si48	Si	-1.410000000000E-01	3.590000000000E-01	-1.410000000000E-01
	O49	O	1.040483459205E-17	-2.418000000000E-01	3.791000000000E-01
	O50	O	2.648000000000E-01	-1.984000000000E-01	4.055000000000E-01
	O51	O	-2.865000000000E-01	3.390000000000E-01	3.127500000000E-01
	O52	O	-9.400000000000E-03	4.538000000000E-01	-4.055000000000E-01
	O53	O	-1.690000000000E-01	1.690000000000E-01	5.000000000000E-01
	O54	O	-2.648000000000E-01	-4.538000000000E-01	2.684000000000E-01
	O55	O	-2.865000000000E-01	8.800000000000E-02	-3.127500000000E-01
	O56	O	9.400000000000E-03	1.984000000000E-01	-2.684000000000E-01
	O57	O	2.418000000000E-01	-4.529641015618E-17	-3.791000000000E-01
	O58	O	1.984000000000E-01	-2.648000000000E-01	-4.055000000000E-01
	O59	O	2.865000000000E-01	-3.390000000000E-01	-3.127500000000E-01
	O60	O	-4.538000000000E-01	9.400000000000E-03	4.055000000000E-01
	O61	O	1.690000000000E-01	-1.690000000000E-01	5.000000000000E-01
	O62	O	4.538000000000E-01	2.648000000000E-01	-2.684000000000E-01
	O63	O	2.865000000000E-01	-8.800000000000E-02	3.127500000000E-01
	O64	O	-1.984000000000E-01	-9.400000000000E-03	2.684000000000E-01
	O65	O	4.510631663921E-17	2.418000000000E-01	-3.791000000000E-01
	Si66	Si	-1.107000000000E-01	2.662000000000E-01	-4.222500000000E-01
	O67	O	-2.648000000000E-01	1.984000000000E-01	-4.055000000000E-01
	Si68	Si	1.107000000000E-01	-2.662000000000E-01	4.222500000000E-01
	O69	O	-3.390000000000E-01	2.865000000000E-01	-3.127500000000E-01
	Si70	Si	1.107000000000E-01	2.662000000000E-01	-3.115500000000E-01
	O71	O	9.400000000000E-03	-4.538000000000E-01	4.055000000000E-01
	Si72	Si	-1.107000000000E-01	-2.662000000000E-01	3.115500000000E-01
	O73	O	1.690000000000E-01	1.690000000000E-01	-3.310000000000E-01
	Si74	Si	-2.662000000000E-01	1.107000000000E-01	4.222500000000E-01
	O75	O	2.648000000000E-01	4.538000000000E-01	-2.684000000000E-01
	Si76	Si	2.662000000000E-01	-1.107000000000E-01	-4.222500000000E-01
	O77	O	-8.800000000000E-02	2.865000000000E-01	3.127500000000E-01
	Si78	Si	-2.662000000000E-01	-1.107000000000E-01	3.115500000000E-01
	O79	O	-9.400000000000E-03	-1.984000000000E-01	2.684000000000E-01
	Si80	Si	2.662000000000E-01	1.107000000000E-01	-3.115500000000E-01
	O81	O	-2.418000000000E-01	-4.510631663921E-17	3.791000000000E-01
	Si82	Si	-3.590000000000E-01	3.590000000000E-01	-2.500000000000E-01
	O83	O	-1.984000000000E-01	2.648000000000E-01	4.055000000000E-01
	Si84	Si	-1.410000000000E-01	1.410000000000E-01	-2.500000000000E-01
	O85	O	3.390000000000E-01	-2.865000000000E-01	3.127500000000E-01
	Si86	Si	3.590000000000E-01	-1.410000000000E-01	3.590000000000E-01
	O87	O	4.538000000000E-01	-9.400000000000E-03	-4.055000000000E-01
	Si88	Si	1.410000000000E-01	-3.590000000000E-01	-3.590000000000E-01
	O89	O	-1.690000000000E-01	-1.690000000000E-01	3.310000000000E-01
	Si90	Si	3.590000000000E-01	-3.590000000000E-01	-2.500000000000E-01
	O91	O	-4.538000000000E-01	-2.648000000000E-01	2.684000000000E-01
	Si92	Si	1.410000000000E-01	-1.410000000000E-01	-2.500000000000E-01
	O93	O	8.800000000000E-02	-2.865000000000E-01	-3.127500000000E-01
	Si94	Si	-3.590000000000E-01	1.410000000000E-01	-3.590000000000E-01
	O95	O	1.984000000000E-01	9.400000000000E-03	-2.684000000000E-01
	Si96	Si	-1.410000000000E-01	3.590000000000E-01	3.590000000000E-01
