data SBT
_chemical_name_common		'SBT'
_cell_length_a		16.89856122
_cell_length_b		16.89856122
_cell_length_c		16.89856122
_cell_angle_alpha		61.148266
_cell_angle_beta		61.148266
_cell_angle_gamma		61.148266
_space group_name_H-M_alt		'P 1'
_space_group_IT_number		1

loop_
	_atom_site_label
	_atom_site_type_symbol
	_atom_site_fract_x
	_atom_site_fract_y
	_atom_site_fract_z
	O1	O	-4.492000000000E-01	2.581000000000E-01	-4.492000000000E-01
	O2	O	-4.492000000000E-01	-4.492000000000E-01	2.581000000000E-01
	O3	O	2.581000000000E-01	-4.492000000000E-01	-4.492000000000E-01
	O4	O	-2.581000000000E-01	4.492000000000E-01	4.492000000000E-01
	O5	O	4.492000000000E-01	4.492000000000E-01	-2.581000000000E-01
	O6	O	4.492000000000E-01	-2.581000000000E-01	4.492000000000E-01
	O7	O	3.853500000000E-01	-3.945000000000E-01	3.853500000000E-01
	O8	O	3.853500000000E-01	3.853500000000E-01	-3.945000000000E-01
	O9	O	-3.945000000000E-01	3.853500000000E-01	3.853500000000E-01
	O10	O	3.945000000000E-01	-3.853500000000E-01	-3.853500000000E-01
	O11	O	-3.853500000000E-01	-3.853500000000E-01	3.945000000000E-01
	O12	O	-3.853500000000E-01	3.945000000000E-01	-3.853500000000E-01
	O13	O	2.025000000000E-01	4.126000000000E-01	-2.980000000000E-01
	O14	O	-2.980000000000E-01	2.025000000000E-01	4.126000000000E-01
	O15	O	4.126000000000E-01	-2.980000000000E-01	2.025000000000E-01
	O16	O	-4.126000000000E-01	-2.025000000000E-01	2.980000000000E-01
	O17	O	-2.025000000000E-01	2.980000000000E-01	-4.126000000000E-01
	O18	O	2.980000000000E-01	-4.126000000000E-01	-2.025000000000E-01
	O19	O	-2.025000000000E-01	-4.126000000000E-01	2.980000000000E-01
	O20	O	2.980000000000E-01	-2.025000000000E-01	-4.126000000000E-01
	O21	O	-4.126000000000E-01	2.980000000000E-01	-2.025000000000E-01
	O22	O	4.126000000000E-01	2.025000000000E-01	-2.980000000000E-01
	O23	O	2.025000000000E-01	-2.980000000000E-01	4.126000000000E-01
	O24	O	-2.980000000000E-01	4.126000000000E-01	2.025000000000E-01
	O25	O	-2.918500000000E-01	2.918500000000E-01	-5.000000000000E-01
	O26	O	-5.000000000000E-01	-2.918500000000E-01	2.918500000000E-01
	O27	O	2.918500000000E-01	-5.000000000000E-01	-2.918500000000E-01
	O28	O	2.918500000000E-01	-2.918500000000E-01	-5.000000000000E-01
	O29	O	5.000000000000E-01	2.918500000000E-01	-2.918500000000E-01
	O30	O	-2.918500000000E-01	-5.000000000000E-01	2.918500000000E-01
	O31	O	-4.310000000000E-01	-1.368000000000E-01	-4.310000000000E-01
	O32	O	-4.310000000000E-01	-4.310000000000E-01	-1.368000000000E-01
	O33	O	-1.368000000000E-01	-4.310000000000E-01	-4.310000000000E-01
	O34	O	1.368000000000E-01	4.310000000000E-01	4.310000000000E-01
	O35	O	4.310000000000E-01	4.310000000000E-01	1.368000000000E-01
	O36	O	4.310000000000E-01	1.368000000000E-01	4.310000000000E-01
	O37	O	-1.607000000000E-01	-3.756100000000E-01	4.052000000000E-01
	O38	O	4.052000000000E-01	-1.607000000000E-01	-3.756100000000E-01
	O39	O	-3.756100000000E-01	4.052000000000E-01	-1.607000000000E-01
	O40	O	3.756100000000E-01	1.607000000000E-01	-4.052000000000E-01
	O41	O	1.607000000000E-01	-4.052000000000E-01	3.756100000000E-01
	O42	O	-4.052000000000E-01	3.756100000000E-01	1.607000000000E-01
	O43	O	1.607000000000E-01	3.756100000000E-01	-4.052000000000E-01
	O44	O	-4.052000000000E-01	1.607000000000E-01	3.756100000000E-01
	O45	O	3.756100000000E-01	-4.052000000000E-01	1.607000000000E-01
	O46	O	-3.756100000000E-01	-1.607000000000E-01	4.052000000000E-01
	O47	O	-1.607000000000E-01	4.052000000000E-01	-3.756100000000E-01
	O48	O	4.052000000000E-01	-3.756100000000E-01	-1.607000000000E-01
	O49	O	-2.700000000000E-01	-4.825100000000E-01	-2.700000000000E-01
	O50	O	-2.700000000000E-01	-2.700000000000E-01	-4.825100000000E-01
	O51	O	-4.825100000000E-01	-2.700000000000E-01	-2.700000000000E-01
	O52	O	4.825100000000E-01	2.700000000000E-01	2.700000000000E-01
	O53	O	2.700000000000E-01	2.700000000000E-01	4.825100000000E-01
	O54	O	2.700000000000E-01	4.825100000000E-01	2.700000000000E-01
	O55	O	-8.910000000000E-02	-2.832000000000E-01	4.281000000000E-01
	O56	O	4.281000000000E-01	-8.910000000000E-02	-2.832000000000E-01
	O57	O	-2.832000000000E-01	4.281000000000E-01	-8.910000000000E-02
	O58	O	2.832000000000E-01	8.910000000000E-02	-4.281000000000E-01
	O59	O	8.910000000000E-02	-4.281000000000E-01	2.832000000000E-01
	O60	O	-4.281000000000E-01	2.832000000000E-01	8.910000000000E-02
	O61	O	8.910000000000E-02	2.832000000000E-01	-4.281000000000E-01
	O62	O	-4.281000000000E-01	8.910000000000E-02	2.832000000000E-01
	O63	O	2.832000000000E-01	-4.281000000000E-01	8.910000000000E-02
	O64	O	-2.832000000000E-01	-8.910000000000E-02	4.281000000000E-01
	O65	O	-8.910000000000E-02	4.281000000000E-01	-2.832000000000E-01
	O66	O	4.281000000000E-01	-2.832000000000E-01	-8.910000000000E-02
	O67	O	5.840000000000E-02	3.493000000000E-01	-2.238000000000E-01
	O68	O	-2.238000000000E-01	5.840000000000E-02	3.493000000000E-01
	O69	O	3.493000000000E-01	-2.238000000000E-01	5.840000000000E-02
	O70	O	-3.493000000000E-01	-5.840000000000E-02	2.238000000000E-01
	O71	O	-5.840000000000E-02	2.238000000000E-01	-3.493000000000E-01
	O72	O	2.238000000000E-01	-3.493000000000E-01	-5.840000000000E-02
	O73	O	-5.840000000000E-02	-3.493000000000E-01	2.238000000000E-01
	O74	O	2.238000000000E-01	-5.840000000000E-02	-3.493000000000E-01
	O75	O	-3.493000000000E-01	2.238000000000E-01	-5.840000000000E-02
	O76	O	3.493000000000E-01	5.840000000000E-02	-2.238000000000E-01
	O77	O	5.840000000000E-02	-2.238000000000E-01	3.493000000000E-01
	O78	O	-2.238000000000E-01	3.493000000000E-01	5.840000000000E-02
	O79	O	2.429000000000E-01	-2.429000000000E-01	7.968359913618E-17
	O80	O	2.011451113448E-17	2.429000000000E-01	-2.429000000000E-01
	O81	O	-2.429000000000E-01	-1.211331429995E-17	2.429000000000E-01
	O82	O	-2.429000000000E-01	2.429000000000E-01	-1.500967736147E-17
	O83	O	-2.011451113448E-17	-2.429000000000E-01	2.429000000000E-01
	O84	O	2.429000000000E-01	1.211331429995E-17	-2.429000000000E-01
	O85	O	-1.045000000000E-01	3.182000000000E-01	-1.045000000000E-01
	O86	O	-1.045000000000E-01	-1.045000000000E-01	3.182000000000E-01
	O87	O	3.182000000000E-01	-1.045000000000E-01	-1.045000000000E-01
	O88	O	-3.182000000000E-01	1.045000000000E-01	1.045000000000E-01
	O89	O	1.045000000000E-01	1.045000000000E-01	-3.182000000000E-01
	O90	O	1.045000000000E-01	-3.182000000000E-01	1.045000000000E-01
	O91	O	2.348000000000E-01	-2.731000000000E-01	2.348000000000E-01
	O92	O	2.348000000000E-01	2.348000000000E-01	-2.731000000000E-01
	O93	O	-2.731000000000E-01	2.348000000000E-01	2.348000000000E-01
	O94	O	2.731000000000E-01	-2.348000000000E-01	-2.348000000000E-01
	O95	O	-2.348000000000E-01	-2.348000000000E-01	2.731000000000E-01
	O96	O	-2.348000000000E-01	2.731000000000E-01	-2.348000000000E-01
	Si97	Si	2.844000000000E-01	4.622000000000E-01	-3.584000000000E-01
	Si98	Si	-3.584000000000E-01	2.844000000000E-01	4.622000000000E-01
	Si99	Si	4.622000000000E-01	-3.584000000000E-01	2.844000000000E-01
	Si100	Si	-4.622000000000E-01	-2.844000000000E-01	3.584000000000E-01
	Si101	Si	-2.844000000000E-01	3.584000000000E-01	-4.622000000000E-01
	Si102	Si	3.584000000000E-01	-4.622000000000E-01	-2.844000000000E-01
	Si103	Si	-2.844000000000E-01	-4.622000000000E-01	3.584000000000E-01
	Si104	Si	3.584000000000E-01	-2.844000000000E-01	-4.622000000000E-01
	Si105	Si	-4.622000000000E-01	3.584000000000E-01	-2.844000000000E-01
	Si106	Si	4.622000000000E-01	2.844000000000E-01	-3.584000000000E-01
	Si107	Si	2.844000000000E-01	-3.584000000000E-01	4.622000000000E-01
	Si108	Si	-3.584000000000E-01	4.622000000000E-01	2.844000000000E-01
	Si109	Si	-3.410000000000E-02	3.347000000000E-01	-2.133000000000E-01
	Si110	Si	-2.133000000000E-01	-3.410000000000E-02	3.347000000000E-01
	Si111	Si	3.347000000000E-01	-2.133000000000E-01	-3.410000000000E-02
	Si112	Si	-3.347000000000E-01	3.410000000000E-02	2.133000000000E-01
	Si113	Si	3.410000000000E-02	2.133000000000E-01	-3.347000000000E-01
	Si114	Si	2.133000000000E-01	-3.347000000000E-01	3.410000000000E-02
	Si115	Si	3.410000000000E-02	-3.347000000000E-01	2.133000000000E-01
	Si116	Si	2.133000000000E-01	3.410000000000E-02	-3.347000000000E-01
	Si117	Si	-3.347000000000E-01	2.133000000000E-01	3.410000000000E-02
	Si118	Si	3.347000000000E-01	-3.410000000000E-02	-2.133000000000E-01
	Si119	Si	-3.410000000000E-02	-2.133000000000E-01	3.347000000000E-01
	Si120	Si	-2.133000000000E-01	3.347000000000E-01	-3.410000000000E-02
	Si121	Si	-3.000000000000E-01	3.431000000000E-01	1.642000000000E-01
	Si122	Si	1.642000000000E-01	-3.000000000000E-01	3.431000000000E-01
	Si123	Si	3.431000000000E-01	1.642000000000E-01	-3.000000000000E-01
	Si124	Si	-3.431000000000E-01	3.000000000000E-01	-1.642000000000E-01
	Si125	Si	3.000000000000E-01	-1.642000000000E-01	-3.431000000000E-01
	Si126	Si	-1.642000000000E-01	-3.431000000000E-01	3.000000000000E-01
	Si127	Si	3.000000000000E-01	-3.431000000000E-01	-1.642000000000E-01
	Si128	Si	-1.642000000000E-01	3.000000000000E-01	-3.431000000000E-01
	Si129	Si	-3.431000000000E-01	-1.642000000000E-01	3.000000000000E-01
	Si130	Si	3.431000000000E-01	-3.000000000000E-01	1.642000000000E-01
	Si131	Si	-3.000000000000E-01	1.642000000000E-01	3.431000000000E-01
	Si132	Si	1.642000000000E-01	3.431000000000E-01	-3.000000000000E-01
	Si133	Si	-1.640000000000E-01	-3.402100000000E-01	4.799000000000E-01
	Si134	Si	4.799000000000E-01	-1.640000000000E-01	-3.402100000000E-01
	Si135	Si	-3.402100000000E-01	4.799000000000E-01	-1.640000000000E-01
	Si136	Si	3.402100000000E-01	1.640000000000E-01	-4.799000000000E-01
	Si137	Si	1.640000000000E-01	-4.799000000000E-01	3.402100000000E-01
	Si138	Si	-4.799000000000E-01	3.402100000000E-01	1.640000000000E-01
	Si139	Si	1.640000000000E-01	3.402100000000E-01	-4.799000000000E-01
	Si140	Si	-4.799000000000E-01	1.640000000000E-01	3.402100000000E-01
	Si141	Si	3.402100000000E-01	-4.799000000000E-01	1.640000000000E-01
	Si142	Si	-3.402100000000E-01	-1.640000000000E-01	4.799000000000E-01
	Si143	Si	-1.640000000000E-01	4.799000000000E-01	-3.402100000000E-01
	Si144	Si	4.799000000000E-01	-3.402100000000E-01	-1.640000000000E-01
