data SFF
_chemical_name_common		'SFF'
_cell_length_a		11.45400000
_cell_length_b		21.69500000
_cell_length_c		7.22700000
_cell_angle_alpha		90.000000
_cell_angle_beta		93.154000
_cell_angle_gamma		90.000000
_space group_name_H-M_alt		'P 1'
_space_group_IT_number		1

loop_
	_atom_site_label
	_atom_site_type_symbol
	_atom_site_fract_x
	_atom_site_fract_y
	_atom_site_fract_z
	O1	O	2.250000000000E-01	-7.520000000000E-02	9.700000000000E-03
	O2	O	-2.250000000000E-01	4.248000000000E-01	-9.700000000000E-03
	O3	O	-2.250000000000E-01	7.520000000000E-02	-9.700000000000E-03
	O4	O	2.250000000000E-01	-4.248000000000E-01	9.700000000000E-03
	O5	O	3.203000000000E-01	-2.420000000000E-02	-2.750000000000E-01
	O6	O	-3.203000000000E-01	4.758000000000E-01	2.750000000000E-01
	O7	O	-3.203000000000E-01	2.420000000000E-02	2.750000000000E-01
	O8	O	3.203000000000E-01	-4.758000000000E-01	-2.750000000000E-01
	O9	O	3.589000000000E-01	2.180000000000E-02	6.140000000000E-02
	O10	O	-3.589000000000E-01	-4.782000000000E-01	-6.140000000000E-02
	O11	O	-3.589000000000E-01	-2.180000000000E-02	-6.140000000000E-02
	O12	O	3.589000000000E-01	4.782000000000E-01	6.140000000000E-02
	O13	O	1.523000000000E-01	3.340000000000E-02	-1.098000000000E-01
	O14	O	-1.523000000000E-01	-4.666000000000E-01	1.098000000000E-01
	O15	O	-1.523000000000E-01	-3.340000000000E-02	1.098000000000E-01
	O16	O	1.523000000000E-01	4.666000000000E-01	-1.098000000000E-01
	O17	O	2.860000000000E-02	-3.921000000000E-01	1.544000000000E-01
	O18	O	-2.860000000000E-02	1.079000000000E-01	-1.544000000000E-01
	O19	O	-2.860000000000E-02	3.921000000000E-01	-1.544000000000E-01
	O20	O	2.860000000000E-02	-1.079000000000E-01	1.544000000000E-01
	O21	O	2.241000000000E-01	-3.327000000000E-01	2.451000000000E-01
	O22	O	-2.241000000000E-01	1.673000000000E-01	-2.451000000000E-01
	O23	O	-2.241000000000E-01	3.327000000000E-01	-2.451000000000E-01
	O24	O	2.241000000000E-01	-1.673000000000E-01	2.451000000000E-01
	O25	O	1.226000000000E-01	-3.210000000000E-01	-8.990000000000E-02
	O26	O	-1.226000000000E-01	1.790000000000E-01	8.990000000000E-02
	O27	O	-1.226000000000E-01	3.210000000000E-01	8.990000000000E-02
	O28	O	1.226000000000E-01	-1.790000000000E-01	-8.990000000000E-02
	O29	O	2.735000000000E-01	-2.500000000000E-01	-4.969000000000E-01
	O30	O	-2.735000000000E-01	2.500000000000E-01	4.969000000000E-01
	O31	O	3.266000000000E-01	-3.666000000000E-01	-4.350000000000E-01
	O32	O	-3.266000000000E-01	1.334000000000E-01	4.350000000000E-01
	O33	O	-3.266000000000E-01	3.666000000000E-01	4.350000000000E-01
	O34	O	3.266000000000E-01	-1.334000000000E-01	-4.350000000000E-01
	O35	O	1.071000000000E-01	-3.312000000000E-01	-4.527000000000E-01
	O36	O	-1.071000000000E-01	1.688000000000E-01	4.527000000000E-01
	O37	O	-1.071000000000E-01	3.312000000000E-01	4.527000000000E-01
	O38	O	1.071000000000E-01	-1.688000000000E-01	-4.527000000000E-01
	O39	O	3.857000000000E-01	-4.656000000000E-01	3.834000000000E-01
	O40	O	-3.857000000000E-01	3.440000000000E-02	-3.834000000000E-01
	O41	O	-3.857000000000E-01	4.656000000000E-01	-3.834000000000E-01
	O42	O	3.857000000000E-01	-3.440000000000E-02	3.834000000000E-01
	O43	O	-4.779000000000E-01	-4.249000000000E-01	-3.392000000000E-01
	O44	O	4.779000000000E-01	7.510000000000E-02	3.392000000000E-01
	O45	O	4.779000000000E-01	4.249000000000E-01	3.392000000000E-01
	O46	O	-4.779000000000E-01	-7.510000000000E-02	-3.392000000000E-01
	O47	O	-6.590000000000E-02	-3.691000000000E-01	-2.577000000000E-01
	O48	O	6.590000000000E-02	1.309000000000E-01	2.577000000000E-01
	O49	O	6.590000000000E-02	3.691000000000E-01	2.577000000000E-01
	O50	O	-6.590000000000E-02	-1.309000000000E-01	-2.577000000000E-01
	O51	O	-2.150000000000E-02	-2.500000000000E-01	-2.872000000000E-01
	O52	O	2.150000000000E-02	2.500000000000E-01	2.872000000000E-01
	O53	O	-5.250000000000E-02	-1.010000000000E-02	-2.278000000000E-01
	O54	O	5.250000000000E-02	4.899000000000E-01	2.278000000000E-01
	O55	O	5.250000000000E-02	1.010000000000E-02	2.278000000000E-01
	O56	O	-5.250000000000E-02	-4.899000000000E-01	-2.278000000000E-01
	O57	O	6.770000000000E-02	6.130000000000E-02	-4.441000000000E-01
	O58	O	-6.770000000000E-02	-4.387000000000E-01	4.441000000000E-01
	O59	O	-6.770000000000E-02	-6.130000000000E-02	4.441000000000E-01
	O60	O	6.770000000000E-02	4.387000000000E-01	-4.441000000000E-01
	O61	O	2.495000000000E-01	6.270000000000E-02	3.482000000000E-01
	O62	O	-2.495000000000E-01	-4.373000000000E-01	-3.482000000000E-01
	O63	O	-2.495000000000E-01	-6.270000000000E-02	-3.482000000000E-01
	O64	O	2.495000000000E-01	4.373000000000E-01	3.482000000000E-01
	Si65	Si	2.643000000000E-01	-1.100000000000E-02	-7.950000000000E-02
	Si66	Si	-2.643000000000E-01	4.890000000000E-01	7.950000000000E-02
	Si67	Si	-2.643000000000E-01	1.100000000000E-02	7.950000000000E-02
	Si68	Si	2.643000000000E-01	-4.890000000000E-01	-7.950000000000E-02
	Si69	Si	1.502000000000E-01	-3.676000000000E-01	8.040000000000E-02
	Si70	Si	-1.502000000000E-01	1.324000000000E-01	-8.040000000000E-02
	Si71	Si	-1.502000000000E-01	3.676000000000E-01	-8.040000000000E-02
	Si72	Si	1.502000000000E-01	-1.324000000000E-01	8.040000000000E-02
	Si73	Si	2.333000000000E-01	-3.202000000000E-01	4.650000000000E-01
	Si74	Si	-2.333000000000E-01	1.798000000000E-01	-4.650000000000E-01
	Si75	Si	-2.333000000000E-01	3.202000000000E-01	-4.650000000000E-01
	Si76	Si	2.333000000000E-01	-1.798000000000E-01	4.650000000000E-01
	Si77	Si	3.882000000000E-01	-4.331000000000E-01	-4.161000000000E-01
	Si78	Si	-3.882000000000E-01	6.690000000000E-02	4.161000000000E-01
	Si79	Si	-3.882000000000E-01	4.331000000000E-01	4.161000000000E-01
	Si80	Si	3.882000000000E-01	-6.690000000000E-02	-4.161000000000E-01
	Si81	Si	3.500000000000E-02	-3.180000000000E-01	-2.718000000000E-01
	Si82	Si	-3.500000000000E-02	1.820000000000E-01	2.718000000000E-01
	Si83	Si	-3.500000000000E-02	3.180000000000E-01	2.718000000000E-01
	Si84	Si	3.500000000000E-02	-1.820000000000E-01	-2.718000000000E-01
	Si85	Si	3.470000000000E-02	4.800000000000E-02	-2.344000000000E-01
	Si86	Si	-3.470000000000E-02	-4.520000000000E-01	2.344000000000E-01
	Si87	Si	-3.470000000000E-02	-4.800000000000E-02	2.344000000000E-01
	Si88	Si	3.470000000000E-02	4.520000000000E-01	-2.344000000000E-01
	Si89	Si	1.092000000000E-01	6.630000000000E-02	3.473000000000E-01
	Si90	Si	-1.092000000000E-01	-4.337000000000E-01	-3.473000000000E-01
	Si91	Si	-1.092000000000E-01	-6.630000000000E-02	-3.473000000000E-01
	Si92	Si	1.092000000000E-01	4.337000000000E-01	3.473000000000E-01
	Si93	Si	3.679000000000E-01	3.150000000000E-02	2.828000000000E-01
	Si94	Si	-3.679000000000E-01	-4.685000000000E-01	-2.828000000000E-01
	Si95	Si	-3.679000000000E-01	-3.150000000000E-02	-2.828000000000E-01
	Si96	Si	3.679000000000E-01	4.685000000000E-01	2.828000000000E-01
