data SFH
_chemical_name_common		'SFH'
_cell_length_a		17.35949874
_cell_length_b		17.35949874
_cell_length_c		21.51800000
_cell_angle_alpha		90.000000
_cell_angle_beta		90.000000
_cell_angle_gamma		17.411272
_space group_name_H-M_alt		'P 1'
_space_group_IT_number		1

loop_
	_atom_site_label
	_atom_site_type_symbol
	_atom_site_fract_x
	_atom_site_fract_y
	_atom_site_fract_z
	O1	O	5.090000000000E-02	5.090000000000E-02	-5.320000000000E-02
	O2	O	-5.090000000000E-02	-5.090000000000E-02	4.468000000000E-01
	O3	O	-5.090000000000E-02	-5.090000000000E-02	5.320000000000E-02
	O4	O	5.090000000000E-02	5.090000000000E-02	-4.468000000000E-01
	O5	O	3.389000000000E-01	-1.609000000000E-01	3.360000000000E-02
	O6	O	-3.389000000000E-01	1.609000000000E-01	-4.664000000000E-01
	O7	O	1.609000000000E-01	-3.389000000000E-01	-3.360000000000E-02
	O8	O	-1.609000000000E-01	3.389000000000E-01	4.664000000000E-01
	O9	O	-3.389000000000E-01	1.609000000000E-01	-3.360000000000E-02
	O10	O	3.389000000000E-01	-1.609000000000E-01	4.664000000000E-01
	O11	O	-1.609000000000E-01	3.389000000000E-01	3.360000000000E-02
	O12	O	1.609000000000E-01	-3.389000000000E-01	-4.664000000000E-01
	O13	O	2.540000000000E-02	2.540000000000E-02	6.230000000000E-02
	O14	O	-2.540000000000E-02	-2.540000000000E-02	-4.377000000000E-01
	O15	O	-2.540000000000E-02	-2.540000000000E-02	-6.230000000000E-02
	O16	O	2.540000000000E-02	2.540000000000E-02	4.377000000000E-01
	O17	O	4.555000000000E-01	-4.450000000000E-02	-3.490000000000E-02
	O18	O	-4.555000000000E-01	4.450000000000E-02	4.651000000000E-01
	O19	O	4.450000000000E-02	-4.555000000000E-01	3.490000000000E-02
	O20	O	-4.450000000000E-02	4.555000000000E-01	-4.651000000000E-01
	O21	O	-4.555000000000E-01	4.450000000000E-02	3.490000000000E-02
	O22	O	4.555000000000E-01	-4.450000000000E-02	-4.651000000000E-01
	O23	O	-4.450000000000E-02	4.555000000000E-01	-3.490000000000E-02
	O24	O	4.450000000000E-02	-4.555000000000E-01	4.651000000000E-01
	O25	O	-2.697000000000E-01	-2.697000000000E-01	6.300000000000E-02
	O26	O	2.697000000000E-01	2.697000000000E-01	-4.370000000000E-01
	O27	O	2.697000000000E-01	2.697000000000E-01	-6.300000000000E-02
	O28	O	-2.697000000000E-01	-2.697000000000E-01	4.370000000000E-01
	O29	O	-3.447000000000E-01	-3.447000000000E-01	3.360000000000E-02
	O30	O	3.447000000000E-01	3.447000000000E-01	-4.664000000000E-01
	O31	O	3.447000000000E-01	3.447000000000E-01	-3.360000000000E-02
	O32	O	-3.447000000000E-01	-3.447000000000E-01	4.664000000000E-01
	O33	O	4.206000000000E-01	4.206000000000E-01	1.777000000000E-01
	O34	O	-4.206000000000E-01	-4.206000000000E-01	-3.223000000000E-01
	O35	O	-4.206000000000E-01	-4.206000000000E-01	-1.777000000000E-01
	O36	O	4.206000000000E-01	4.206000000000E-01	3.223000000000E-01
	O37	O	-3.944000000000E-01	1.058000000000E-01	1.581000000000E-01
	O38	O	3.944000000000E-01	-1.058000000000E-01	-3.419000000000E-01
	O39	O	-1.058000000000E-01	3.944000000000E-01	-1.581000000000E-01
	O40	O	1.058000000000E-01	-3.944000000000E-01	3.419000000000E-01
	O41	O	3.944000000000E-01	-1.058000000000E-01	-1.581000000000E-01
	O42	O	-3.944000000000E-01	1.058000000000E-01	3.419000000000E-01
	O43	O	1.058000000000E-01	-3.944000000000E-01	1.581000000000E-01
	O44	O	-1.058000000000E-01	3.944000000000E-01	-3.419000000000E-01
	O45	O	3.892000000000E-01	3.892000000000E-01	6.630000000000E-02
	O46	O	-3.892000000000E-01	-3.892000000000E-01	-4.337000000000E-01
	O47	O	-3.892000000000E-01	-3.892000000000E-01	-6.630000000000E-02
	O48	O	3.892000000000E-01	3.892000000000E-01	4.337000000000E-01
	O49	O	-2.094000000000E-01	-2.094000000000E-01	1.395000000000E-01
	O50	O	2.094000000000E-01	2.094000000000E-01	-3.605000000000E-01
	O51	O	2.094000000000E-01	2.094000000000E-01	-1.395000000000E-01
	O52	O	-2.094000000000E-01	-2.094000000000E-01	3.605000000000E-01
	O53	O	2.664000000000E-01	-2.334000000000E-01	-3.559000000000E-01
	O54	O	-2.664000000000E-01	2.334000000000E-01	1.441000000000E-01
	O55	O	2.334000000000E-01	-2.664000000000E-01	3.559000000000E-01
	O56	O	-2.334000000000E-01	2.664000000000E-01	-1.441000000000E-01
	O57	O	-2.664000000000E-01	2.334000000000E-01	3.559000000000E-01
	O58	O	2.664000000000E-01	-2.334000000000E-01	-1.441000000000E-01
	O59	O	-2.334000000000E-01	2.664000000000E-01	-3.559000000000E-01
	O60	O	2.334000000000E-01	-2.664000000000E-01	1.441000000000E-01
	O61	O	-1.778000000000E-01	-1.778000000000E-01	2.500000000000E-01
	O62	O	1.778000000000E-01	1.778000000000E-01	-2.500000000000E-01
	O63	O	4.821000000000E-01	4.821000000000E-01	2.500000000000E-01
	O64	O	-4.821000000000E-01	-4.821000000000E-01	-2.500000000000E-01
	Si65	Si	6.350000000000E-02	6.350000000000E-02	1.890000000000E-02
	Si66	Si	-6.350000000000E-02	-6.350000000000E-02	-4.811000000000E-01
	Si67	Si	-6.350000000000E-02	-6.350000000000E-02	-1.890000000000E-02
	Si68	Si	6.350000000000E-02	6.350000000000E-02	4.811000000000E-01
	Si69	Si	-3.009000000000E-01	-3.009000000000E-01	7.000000000000E-03
	Si70	Si	3.009000000000E-01	3.009000000000E-01	-4.930000000000E-01
	Si71	Si	3.009000000000E-01	3.009000000000E-01	-7.000000000000E-03
	Si72	Si	-3.009000000000E-01	-3.009000000000E-01	4.930000000000E-01
	Si73	Si	3.802000000000E-01	3.802000000000E-01	1.397000000000E-01
	Si74	Si	-3.802000000000E-01	-3.802000000000E-01	-3.603000000000E-01
	Si75	Si	-3.802000000000E-01	-3.802000000000E-01	-1.397000000000E-01
	Si76	Si	3.802000000000E-01	3.802000000000E-01	3.603000000000E-01
	Si77	Si	-2.229000000000E-01	-2.229000000000E-01	6.780000000000E-02
	Si78	Si	2.229000000000E-01	2.229000000000E-01	-4.322000000000E-01
	Si79	Si	2.229000000000E-01	2.229000000000E-01	-6.780000000000E-02
	Si80	Si	-2.229000000000E-01	-2.229000000000E-01	4.322000000000E-01
	Si81	Si	1.480000000000E-02	1.480000000000E-02	-3.990000000000E-01
	Si82	Si	-1.480000000000E-02	-1.480000000000E-02	1.010000000000E-01
	Si83	Si	-1.480000000000E-02	-1.480000000000E-02	3.990000000000E-01
	Si84	Si	1.480000000000E-02	1.480000000000E-02	-1.010000000000E-01
	Si85	Si	3.889000000000E-01	3.889000000000E-01	-8.400000000000E-03
	Si86	Si	-3.889000000000E-01	-3.889000000000E-01	4.916000000000E-01
	Si87	Si	-3.889000000000E-01	-3.889000000000E-01	8.400000000000E-03
	Si88	Si	3.889000000000E-01	3.889000000000E-01	-4.916000000000E-01
	Si89	Si	-1.687000000000E-01	-1.687000000000E-01	1.767000000000E-01
	Si90	Si	1.687000000000E-01	1.687000000000E-01	-3.233000000000E-01
	Si91	Si	1.687000000000E-01	1.687000000000E-01	-1.767000000000E-01
	Si92	Si	-1.687000000000E-01	-1.687000000000E-01	3.233000000000E-01
	Si93	Si	4.675000000000E-01	4.675000000000E-01	1.788000000000E-01
	Si94	Si	-4.675000000000E-01	-4.675000000000E-01	-3.212000000000E-01
	Si95	Si	-4.675000000000E-01	-4.675000000000E-01	-1.788000000000E-01
	Si96	Si	4.675000000000E-01	4.675000000000E-01	3.212000000000E-01
