data SFN
_chemical_name_common		'SFN'
_cell_length_a		12.88142439
_cell_length_b		12.88142439
_cell_length_c		30.04400000
_cell_angle_alpha		76.407808
_cell_angle_beta		103.592192
_cell_angle_gamma		156.456346
_space group_name_H-M_alt		'P 1'
_space_group_IT_number		1

loop_
	_atom_site_label
	_atom_site_type_symbol
	_atom_site_fract_x
	_atom_site_fract_y
	_atom_site_fract_z
	O1	O	-1.320000000000E-02	1.320000000000E-02	-2.011000000000E-01
	O2	O	1.320000000000E-02	-1.320000000000E-02	2.011000000000E-01
	O3	O	-1.824000000000E-01	-3.178000000000E-01	-1.475500000000E-01
	O4	O	-3.178000000000E-01	-1.824000000000E-01	1.475500000000E-01
	O5	O	1.824000000000E-01	3.178000000000E-01	1.475500000000E-01
	O6	O	3.178000000000E-01	1.824000000000E-01	-1.475500000000E-01
	O7	O	8.400000000000E-02	-8.400000000000E-02	-2.188500000000E-01
	O8	O	-8.400000000000E-02	8.400000000000E-02	2.188500000000E-01
	O9	O	3.554000000000E-01	1.446000000000E-01	2.116500000000E-01
	O10	O	1.446000000000E-01	3.554000000000E-01	-2.116500000000E-01
	O11	O	-3.554000000000E-01	-1.446000000000E-01	-2.116500000000E-01
	O12	O	-1.446000000000E-01	-3.554000000000E-01	2.116500000000E-01
	O13	O	-3.299000000000E-01	3.299000000000E-01	1.707000000000E-01
	O14	O	3.299000000000E-01	-3.299000000000E-01	-1.707000000000E-01
	O15	O	9.200000000000E-03	4.908000000000E-01	1.660000000000E-01
	O16	O	4.908000000000E-01	9.200000000000E-03	-1.660000000000E-01
	O17	O	-9.200000000000E-03	-4.908000000000E-01	-1.660000000000E-01
	O18	O	-4.908000000000E-01	-9.200000000000E-03	1.660000000000E-01
	O19	O	-2.962000000000E-01	2.962000000000E-01	9.445000000000E-02
	O20	O	2.962000000000E-01	-2.962000000000E-01	-9.445000000000E-02
	O21	O	-3.649000000000E-01	3.649000000000E-01	-8.215000000000E-02
	O22	O	3.649000000000E-01	-3.649000000000E-01	8.215000000000E-02
	O23	O	-3.498000000000E-01	3.498000000000E-01	-1.660000000000E-01
	O24	O	3.498000000000E-01	-3.498000000000E-01	1.660000000000E-01
	O25	O	-3.101000000000E-01	3.101000000000E-01	2.607500000000E-01
	O26	O	3.101000000000E-01	-3.101000000000E-01	-2.607500000000E-01
	O27	O	-3.084000000000E-01	3.084000000000E-01	4.400000000000E-03
	O28	O	3.084000000000E-01	-3.084000000000E-01	-4.400000000000E-03
	O29	O	4.773000000000E-01	2.250000000000E-02	-5.825000000000E-02
	O30	O	2.250000000000E-02	4.773000000000E-01	5.825000000000E-02
	O31	O	-4.773000000000E-01	-2.250000000000E-02	5.825000000000E-02
	O32	O	-2.250000000000E-02	-4.773000000000E-01	-5.825000000000E-02
	Si33	Si	5.150000000000E-02	-5.150000000000E-02	-1.788000000000E-01
	Si34	Si	-5.150000000000E-02	5.150000000000E-02	1.788000000000E-01
	Si35	Si	7.700000000000E-02	-7.700000000000E-02	2.264500000000E-01
	Si36	Si	-7.700000000000E-02	7.700000000000E-02	-2.264500000000E-01
	Si37	Si	-2.770000000000E-01	2.770000000000E-01	1.496500000000E-01
	Si38	Si	2.770000000000E-01	-2.770000000000E-01	-1.496500000000E-01
	Si39	Si	-3.946000000000E-01	3.946000000000E-01	-1.359000000000E-01
	Si40	Si	3.946000000000E-01	-3.946000000000E-01	1.359000000000E-01
	Si41	Si	-3.572000000000E-01	3.572000000000E-01	2.139000000000E-01
	Si42	Si	3.572000000000E-01	-3.572000000000E-01	-2.139000000000E-01
	Si43	Si	-2.947000000000E-01	2.947000000000E-01	-1.840500000000E-01
	Si44	Si	2.947000000000E-01	-2.947000000000E-01	1.840500000000E-01
	Si45	Si	-3.047000000000E-01	3.047000000000E-01	-4.840000000000E-02
	Si46	Si	3.047000000000E-01	-3.047000000000E-01	4.840000000000E-02
	Si47	Si	-2.652000000000E-01	2.652000000000E-01	5.345000000000E-02
	Si48	Si	2.652000000000E-01	-2.652000000000E-01	-5.345000000000E-02
	O49	O	1.320000000000E-02	-1.320000000000E-02	-2.989000000000E-01
	O50	O	-3.101000000000E-01	3.101000000000E-01	-2.392500000000E-01
	O51	O	-3.299000000000E-01	3.299000000000E-01	-3.293000000000E-01
	O52	O	3.101000000000E-01	-3.101000000000E-01	2.392500000000E-01
	O53	O	8.400000000000E-02	-8.400000000000E-02	2.811500000000E-01
	O54	O	-3.084000000000E-01	3.084000000000E-01	-4.956000000000E-01
	O55	O	3.299000000000E-01	-3.299000000000E-01	3.293000000000E-01
	O56	O	3.084000000000E-01	-3.084000000000E-01	4.956000000000E-01
	O57	O	-3.178000000000E-01	-1.824000000000E-01	-3.524500000000E-01
	O58	O	4.773000000000E-01	2.250000000000E-02	4.417500000000E-01
	O59	O	9.200000000000E-03	4.908000000000E-01	-3.340000000000E-01
	O60	O	2.250000000000E-02	4.773000000000E-01	-4.417500000000E-01
	O61	O	-8.400000000000E-02	8.400000000000E-02	-2.811500000000E-01
	O62	O	-4.773000000000E-01	-2.250000000000E-02	-4.417500000000E-01
	O63	O	4.908000000000E-01	9.200000000000E-03	3.340000000000E-01
	O64	O	-2.250000000000E-02	-4.773000000000E-01	4.417500000000E-01
	O65	O	-1.320000000000E-02	1.320000000000E-02	2.989000000000E-01
	Si66	Si	5.150000000000E-02	-5.150000000000E-02	3.212000000000E-01
	O67	O	-9.200000000000E-03	-4.908000000000E-01	3.340000000000E-01
	Si68	Si	-5.150000000000E-02	5.150000000000E-02	-3.212000000000E-01
	O69	O	3.554000000000E-01	1.446000000000E-01	-2.883500000000E-01
	Si70	Si	7.700000000000E-02	-7.700000000000E-02	-2.735500000000E-01
	O71	O	-4.908000000000E-01	-9.200000000000E-03	-3.340000000000E-01
	Si72	Si	-7.700000000000E-02	7.700000000000E-02	2.735500000000E-01
	O73	O	1.824000000000E-01	3.178000000000E-01	-3.524500000000E-01
	Si74	Si	-2.770000000000E-01	2.770000000000E-01	-3.503500000000E-01
	O75	O	-2.962000000000E-01	2.962000000000E-01	-4.055500000000E-01
	Si76	Si	2.770000000000E-01	-2.770000000000E-01	3.503500000000E-01
	O77	O	1.446000000000E-01	3.554000000000E-01	2.883500000000E-01
	Si78	Si	-3.946000000000E-01	3.946000000000E-01	3.641000000000E-01
	O79	O	2.962000000000E-01	-2.962000000000E-01	4.055500000000E-01
	Si80	Si	3.946000000000E-01	-3.946000000000E-01	-3.641000000000E-01
	O81	O	-1.824000000000E-01	-3.178000000000E-01	3.524500000000E-01
	Si82	Si	-3.572000000000E-01	3.572000000000E-01	-2.861000000000E-01
	O83	O	-3.649000000000E-01	3.649000000000E-01	4.178500000000E-01
	Si84	Si	3.572000000000E-01	-3.572000000000E-01	2.861000000000E-01
	O85	O	-3.554000000000E-01	-1.446000000000E-01	2.883500000000E-01
	Si86	Si	-2.947000000000E-01	2.947000000000E-01	3.159500000000E-01
	O87	O	3.649000000000E-01	-3.649000000000E-01	-4.178500000000E-01
	Si88	Si	2.947000000000E-01	-2.947000000000E-01	-3.159500000000E-01
	O89	O	3.178000000000E-01	1.824000000000E-01	3.524500000000E-01
	Si90	Si	-3.047000000000E-01	3.047000000000E-01	4.516000000000E-01
	O91	O	-3.498000000000E-01	3.498000000000E-01	3.340000000000E-01
	Si92	Si	3.047000000000E-01	-3.047000000000E-01	-4.516000000000E-01
	O93	O	-1.446000000000E-01	-3.554000000000E-01	-2.883500000000E-01
	Si94	Si	-2.652000000000E-01	2.652000000000E-01	-4.465500000000E-01
	O95	O	3.498000000000E-01	-3.498000000000E-01	-3.340000000000E-01
	Si96	Si	2.652000000000E-01	-2.652000000000E-01	4.465500000000E-01
