data SFW
_chemical_name_common		'SFW'
_cell_length_a		16.70525218
_cell_length_b		16.70525218
_cell_length_c		16.70525218
_cell_angle_alpha		48.343131
_cell_angle_beta		48.343131
_cell_angle_gamma		48.343131
_space group_name_H-M_alt		'P 1'
_space_group_IT_number		1

loop_
	_atom_site_label
	_atom_site_type_symbol
	_atom_site_fract_x
	_atom_site_fract_y
	_atom_site_fract_z
	Si1	Si	2.570400000000E-01	4.829400000000E-01	3.207000000000E-02
	Si2	Si	3.207000000000E-02	2.570400000000E-01	4.829400000000E-01
	Si3	Si	4.829400000000E-01	3.207000000000E-02	2.570400000000E-01
	Si4	Si	-4.829400000000E-01	-2.570400000000E-01	-3.207000000000E-02
	Si5	Si	-2.570400000000E-01	-3.207000000000E-02	-4.829400000000E-01
	Si6	Si	-3.207000000000E-02	-4.829400000000E-01	-2.570400000000E-01
	Si7	Si	-2.570400000000E-01	-4.829400000000E-01	-3.207000000000E-02
	Si8	Si	-3.207000000000E-02	-2.570400000000E-01	-4.829400000000E-01
	Si9	Si	-4.829400000000E-01	-3.207000000000E-02	-2.570400000000E-01
	Si10	Si	4.829400000000E-01	2.570400000000E-01	3.207000000000E-02
	Si11	Si	2.570400000000E-01	3.207000000000E-02	4.829400000000E-01
	Si12	Si	3.207000000000E-02	4.829400000000E-01	2.570400000000E-01
	Si13	Si	1.865400000000E-01	4.130700000000E-01	-3.915000000000E-02
	Si14	Si	-3.915000000000E-02	1.865400000000E-01	4.130700000000E-01
	Si15	Si	4.130700000000E-01	-3.915000000000E-02	1.865400000000E-01
	Si16	Si	-4.130700000000E-01	-1.865400000000E-01	3.915000000000E-02
	Si17	Si	-1.865400000000E-01	3.915000000000E-02	-4.130700000000E-01
	Si18	Si	3.915000000000E-02	-4.130700000000E-01	-1.865400000000E-01
	Si19	Si	-1.865400000000E-01	-4.130700000000E-01	3.915000000000E-02
	Si20	Si	3.915000000000E-02	-1.865400000000E-01	-4.130700000000E-01
	Si21	Si	-4.130700000000E-01	3.915000000000E-02	-1.865400000000E-01
	Si22	Si	4.130700000000E-01	1.865400000000E-01	-3.915000000000E-02
	Si23	Si	1.865400000000E-01	-3.915000000000E-02	4.130700000000E-01
	Si24	Si	-3.915000000000E-02	4.130700000000E-01	1.865400000000E-01
	Si25	Si	3.471000000000E-02	2.611200000000E-01	-1.906500000000E-01
	Si26	Si	-1.906500000000E-01	3.471000000000E-02	2.611200000000E-01
	Si27	Si	2.611200000000E-01	-1.906500000000E-01	3.471000000000E-02
	Si28	Si	-2.611200000000E-01	-3.471000000000E-02	1.906500000000E-01
	Si29	Si	-3.471000000000E-02	1.906500000000E-01	-2.611200000000E-01
	Si30	Si	1.906500000000E-01	-2.611200000000E-01	-3.471000000000E-02
	Si31	Si	-3.471000000000E-02	-2.611200000000E-01	1.906500000000E-01
	Si32	Si	1.906500000000E-01	-3.471000000000E-02	-2.611200000000E-01
	Si33	Si	-2.611200000000E-01	1.906500000000E-01	-3.471000000000E-02
	Si34	Si	2.611200000000E-01	3.471000000000E-02	-1.906500000000E-01
	Si35	Si	3.471000000000E-02	-1.906500000000E-01	2.611200000000E-01
	Si36	Si	-1.906500000000E-01	2.611200000000E-01	3.471000000000E-02
	O37	O	2.221400000000E-01	4.775300000000E-01	-3.334000000000E-02
	O38	O	-3.334000000000E-02	2.221400000000E-01	4.775300000000E-01
	O39	O	4.775300000000E-01	-3.334000000000E-02	2.221400000000E-01
	O40	O	-4.775300000000E-01	-2.221400000000E-01	3.334000000000E-02
	O41	O	-2.221400000000E-01	3.334000000000E-02	-4.775300000000E-01
	O42	O	3.334000000000E-02	-4.775300000000E-01	-2.221400000000E-01
	O43	O	-2.221400000000E-01	-4.775300000000E-01	3.334000000000E-02
	O44	O	3.334000000000E-02	-2.221400000000E-01	-4.775300000000E-01
	O45	O	-4.775300000000E-01	3.334000000000E-02	-2.221400000000E-01
	O46	O	4.775300000000E-01	2.221400000000E-01	-3.334000000000E-02
	O47	O	2.221400000000E-01	-3.334000000000E-02	4.775300000000E-01
	O48	O	-3.334000000000E-02	4.775300000000E-01	2.221400000000E-01
	O49	O	3.876100000000E-01	2.431000000000E-02	3.876100000000E-01
	O50	O	3.876100000000E-01	3.876100000000E-01	2.431000000000E-02
	O51	O	2.431000000000E-02	3.876100000000E-01	3.876100000000E-01
	O52	O	-2.431000000000E-02	-3.876100000000E-01	-3.876100000000E-01
	O53	O	-3.876100000000E-01	-3.876100000000E-01	-2.431000000000E-02
	O54	O	-3.876100000000E-01	-2.431000000000E-02	-3.876100000000E-01
	O55	O	1.670700000000E-01	4.558500000000E-01	1.670700000000E-01
	O56	O	1.670700000000E-01	1.670700000000E-01	4.558500000000E-01
	O57	O	4.558500000000E-01	1.670700000000E-01	1.670700000000E-01
	O58	O	-4.558500000000E-01	-1.670700000000E-01	-1.670700000000E-01
	O59	O	-1.670700000000E-01	-1.670700000000E-01	-4.558500000000E-01
	O60	O	-1.670700000000E-01	-4.558500000000E-01	-1.670700000000E-01
	O61	O	2.517700000000E-01	-3.887100000000E-01	-3.041000000000E-02
	O62	O	-3.041000000000E-02	2.517700000000E-01	-3.887100000000E-01
	O63	O	-3.887100000000E-01	-3.041000000000E-02	2.517700000000E-01
	O64	O	3.887100000000E-01	-2.517700000000E-01	3.041000000000E-02
	O65	O	-2.517700000000E-01	3.041000000000E-02	3.887100000000E-01
	O66	O	3.041000000000E-02	3.887100000000E-01	-2.517700000000E-01
	O67	O	-2.517700000000E-01	3.887100000000E-01	3.041000000000E-02
	O68	O	3.041000000000E-02	-2.517700000000E-01	3.887100000000E-01
	O69	O	3.887100000000E-01	3.041000000000E-02	-2.517700000000E-01
	O70	O	-3.887100000000E-01	2.517700000000E-01	-3.041000000000E-02
	O71	O	2.517700000000E-01	-3.041000000000E-02	-3.887100000000E-01
	O72	O	-3.041000000000E-02	-3.887100000000E-01	2.517700000000E-01
	O73	O	8.233000000000E-02	3.766000000000E-01	8.233000000000E-02
	O74	O	8.233000000000E-02	8.233000000000E-02	3.766000000000E-01
	O75	O	3.766000000000E-01	8.233000000000E-02	8.233000000000E-02
	O76	O	-3.766000000000E-01	-8.233000000000E-02	-8.233000000000E-02
	O77	O	-8.233000000000E-02	-8.233000000000E-02	-3.766000000000E-01
	O78	O	-8.233000000000E-02	-3.766000000000E-01	-8.233000000000E-02
	O79	O	-1.446100000000E-01	1.446100000000E-01	-5.000000000000E-01
	O80	O	-5.000000000000E-01	-1.446100000000E-01	1.446100000000E-01
	O81	O	1.446100000000E-01	5.000000000000E-01	-1.446100000000E-01
	O82	O	1.446100000000E-01	-1.446100000000E-01	-5.000000000000E-01
	O83	O	-5.000000000000E-01	1.446100000000E-01	-1.446100000000E-01
	O84	O	-1.446100000000E-01	-5.000000000000E-01	1.446100000000E-01
	O85	O	2.978200000000E-01	-6.242000000000E-02	2.978200000000E-01
	O86	O	2.978200000000E-01	2.978200000000E-01	-6.242000000000E-02
	O87	O	-6.242000000000E-02	2.978200000000E-01	2.978200000000E-01
	O88	O	6.242000000000E-02	-2.978200000000E-01	-2.978200000000E-01
	O89	O	-2.978200000000E-01	-2.978200000000E-01	6.242000000000E-02
	O90	O	-2.978200000000E-01	6.242000000000E-02	-2.978200000000E-01
	O91	O	2.579600000000E-01	-2.579600000000E-01	1.499014997946E-17
	O92	O	-3.047832402998E-17	2.579600000000E-01	-2.579600000000E-01
	O93	O	-2.579600000000E-01	-7.032831398395E-17	2.579600000000E-01
	O94	O	-2.579600000000E-01	2.579600000000E-01	-6.866718629060E-17
	O95	O	3.047832402998E-17	-2.579600000000E-01	2.579600000000E-01
	O96	O	2.579600000000E-01	7.032831398395E-17	-2.579600000000E-01
	O97	O	1.649300000000E-01	-1.979200000000E-01	1.649300000000E-01
	O98	O	1.649300000000E-01	1.649300000000E-01	-1.979200000000E-01
	O99	O	-1.979200000000E-01	1.649300000000E-01	1.649300000000E-01
	O100	O	1.979200000000E-01	-1.649300000000E-01	-1.649300000000E-01
	O101	O	-1.649300000000E-01	-1.649300000000E-01	1.979200000000E-01
	O102	O	-1.649300000000E-01	1.979200000000E-01	-1.649300000000E-01
	O103	O	-5.583000000000E-02	2.335800000000E-01	-5.583000000000E-02
	O104	O	-5.583000000000E-02	-5.583000000000E-02	2.335800000000E-01
	O105	O	2.335800000000E-01	-5.583000000000E-02	-5.583000000000E-02
	O106	O	-2.335800000000E-01	5.583000000000E-02	5.583000000000E-02
	O107	O	5.583000000000E-02	5.583000000000E-02	-2.335800000000E-01
	O108	O	5.583000000000E-02	-2.335800000000E-01	5.583000000000E-02
