data SGT
_chemical_name_common		'SGT'
_cell_length_a		18.66990210
_cell_length_b		18.66990210
_cell_length_c		18.66990210
_cell_angle_alpha		147.882640
_cell_angle_beta		147.882640
_cell_angle_gamma		46.058643
_space group_name_H-M_alt		'P 1'
_space_group_IT_number		1

loop_
	_atom_site_label
	_atom_site_type_symbol
	_atom_site_fract_x
	_atom_site_fract_y
	_atom_site_fract_z
	O1	O	-4.764000000000E-01	1.909000000000E-01	-3.327000000000E-01
	O2	O	-4.764000000000E-01	-1.437000000000E-01	3.327000000000E-01
	O3	O	-2.736000000000E-01	-1.063000000000E-01	1.673000000000E-01
	O4	O	-2.736000000000E-01	-4.409000000000E-01	-1.673000000000E-01
	O5	O	-1.909000000000E-01	4.764000000000E-01	3.327000000000E-01
	O6	O	1.437000000000E-01	4.764000000000E-01	-3.327000000000E-01
	O7	O	1.063000000000E-01	2.736000000000E-01	-1.673000000000E-01
	O8	O	4.409000000000E-01	2.736000000000E-01	1.673000000000E-01
	O9	O	3.726000000000E-01	3.726000000000E-01	-2.548000000000E-01
	O10	O	-3.726000000000E-01	-3.726000000000E-01	2.548000000000E-01
	O11	O	-1.226000000000E-01	1.226000000000E-01	5.000000000000E-01
	O12	O	-3.774000000000E-01	3.774000000000E-01	5.000000000000E-01
	O13	O	-1.226000000000E-01	3.774000000000E-01	-2.452000000000E-01
	O14	O	-3.774000000000E-01	1.226000000000E-01	2.452000000000E-01
	O15	O	3.726000000000E-01	-3.726000000000E-01	-2.055888842488E-16
	O16	O	-3.726000000000E-01	3.726000000000E-01	-7.196687190753E-17
	O17	O	4.494000000000E-01	1.802000000000E-01	-2.692000000000E-01
	O18	O	4.494000000000E-01	-2.814000000000E-01	2.692000000000E-01
	O19	O	-1.994000000000E-01	3.140000000000E-02	2.308000000000E-01
	O20	O	-1.994000000000E-01	-4.302000000000E-01	-2.308000000000E-01
	O21	O	-1.802000000000E-01	-4.494000000000E-01	2.692000000000E-01
	O22	O	2.814000000000E-01	-4.494000000000E-01	-2.692000000000E-01
	O23	O	-3.140000000000E-02	1.994000000000E-01	-2.308000000000E-01
	O24	O	4.302000000000E-01	1.994000000000E-01	2.308000000000E-01
	O25	O	-4.185000000000E-01	8.150000000000E-02	5.000000000000E-01
	O26	O	-3.315000000000E-01	-3.315000000000E-01	-7.279505657595E-18
	O27	O	-8.150000000000E-02	4.185000000000E-01	5.000000000000E-01
	O28	O	3.315000000000E-01	3.315000000000E-01	-1.289832151757E-16
	O29	O	4.605000000000E-01	3.071000000000E-01	-4.082000000000E-01
	O30	O	-2.847000000000E-01	-1.313000000000E-01	4.082000000000E-01
	O31	O	-2.105000000000E-01	-1.187000000000E-01	3.466000000000E-01
	O32	O	-4.653000000000E-01	4.429000000000E-01	-3.466000000000E-01
	O33	O	-3.071000000000E-01	-4.605000000000E-01	4.082000000000E-01
	O34	O	1.313000000000E-01	2.847000000000E-01	-4.082000000000E-01
	O35	O	1.187000000000E-01	2.105000000000E-01	-3.466000000000E-01
	O36	O	-4.429000000000E-01	4.653000000000E-01	3.466000000000E-01
	O37	O	-2.105000000000E-01	4.429000000000E-01	-9.180000000000E-02
	O38	O	-4.653000000000E-01	-1.187000000000E-01	9.180000000000E-02
	O39	O	4.605000000000E-01	-1.313000000000E-01	1.534000000000E-01
	O40	O	-2.847000000000E-01	3.071000000000E-01	-1.534000000000E-01
	O41	O	-4.429000000000E-01	2.105000000000E-01	9.180000000000E-02
	O42	O	1.187000000000E-01	4.653000000000E-01	-9.180000000000E-02
	O43	O	1.313000000000E-01	-4.605000000000E-01	-1.534000000000E-01
	O44	O	-3.071000000000E-01	2.847000000000E-01	1.534000000000E-01
	O45	O	-7.300000000000E-03	5.760000000000E-02	3.189000000000E-01
	O46	O	-2.613000000000E-01	-3.262000000000E-01	-3.189000000000E-01
	O47	O	2.573000000000E-01	7.620000000000E-02	-4.351000000000E-01
	O48	O	-4.887000000000E-01	-3.076000000000E-01	4.351000000000E-01
	O49	O	-5.760000000000E-02	7.300000000000E-03	-3.189000000000E-01
	O50	O	3.262000000000E-01	2.613000000000E-01	3.189000000000E-01
	O51	O	-7.620000000000E-02	-2.573000000000E-01	4.351000000000E-01
	O52	O	3.076000000000E-01	4.887000000000E-01	-4.351000000000E-01
	O53	O	2.573000000000E-01	-3.076000000000E-01	1.811000000000E-01
	O54	O	-4.887000000000E-01	7.620000000000E-02	-1.811000000000E-01
	O55	O	-7.300000000000E-03	-3.262000000000E-01	-6.490000000000E-02
	O56	O	-2.613000000000E-01	5.760000000000E-02	6.490000000000E-02
	O57	O	3.076000000000E-01	-2.573000000000E-01	-1.811000000000E-01
	O58	O	-7.620000000000E-02	4.887000000000E-01	1.811000000000E-01
	O59	O	3.262000000000E-01	7.300000000000E-03	6.490000000000E-02
	O60	O	-5.760000000000E-02	2.613000000000E-01	-6.490000000000E-02
	O61	O	4.174000000000E-01	-8.260000000000E-02	5.000000000000E-01
	O62	O	-1.674000000000E-01	-1.674000000000E-01	-7.279505657595E-18
	O63	O	8.260000000000E-02	-4.174000000000E-01	-5.000000000000E-01
	O64	O	1.674000000000E-01	1.674000000000E-01	-8.598881011716E-17
	Si65	Si	4.932000000000E-01	2.792000000000E-01	-2.140000000000E-01
	Si66	Si	4.932000000000E-01	-2.928000000000E-01	2.140000000000E-01
	Si67	Si	-2.432000000000E-01	4.280000000000E-02	2.860000000000E-01
	Si68	Si	-2.432000000000E-01	4.708000000000E-01	-2.860000000000E-01
	Si69	Si	-2.792000000000E-01	-4.932000000000E-01	2.140000000000E-01
	Si70	Si	2.928000000000E-01	-4.932000000000E-01	-2.140000000000E-01
	Si71	Si	-4.280000000000E-02	2.432000000000E-01	-2.860000000000E-01
	Si72	Si	-4.708000000000E-01	2.432000000000E-01	2.860000000000E-01
	Si73	Si	-4.297000000000E-01	2.215000000000E-01	-3.488000000000E-01
	Si74	Si	-4.297000000000E-01	-8.090000000000E-02	3.488000000000E-01
	Si75	Si	-3.203000000000E-01	-1.691000000000E-01	1.512000000000E-01
	Si76	Si	-3.203000000000E-01	-4.715000000000E-01	-1.512000000000E-01
	Si77	Si	-2.215000000000E-01	4.297000000000E-01	3.488000000000E-01
	Si78	Si	8.090000000000E-02	4.297000000000E-01	-3.488000000000E-01
	Si79	Si	1.691000000000E-01	3.203000000000E-01	-1.512000000000E-01
	Si80	Si	4.715000000000E-01	3.203000000000E-01	1.512000000000E-01
	Si81	Si	1.250000000000E-01	1.574000000000E-01	-4.676000000000E-01
	Si82	Si	-3.750000000000E-01	-4.074000000000E-01	4.676000000000E-01
	Si83	Si	-1.574000000000E-01	-1.250000000000E-01	4.676000000000E-01
	Si84	Si	4.074000000000E-01	3.750000000000E-01	-4.676000000000E-01
	Si85	Si	1.250000000000E-01	-4.074000000000E-01	-3.240000000000E-02
	Si86	Si	-3.750000000000E-01	1.574000000000E-01	3.240000000000E-02
	Si87	Si	4.074000000000E-01	-1.250000000000E-01	3.240000000000E-02
	Si88	Si	-1.574000000000E-01	3.750000000000E-01	-3.240000000000E-02
	Si89	Si	4.088000000000E-01	6.190000000000E-02	-3.469000000000E-01
	Si90	Si	4.088000000000E-01	-2.443000000000E-01	3.469000000000E-01
	Si91	Si	-1.588000000000E-01	-5.700000000000E-03	1.531000000000E-01
	Si92	Si	-1.588000000000E-01	-3.119000000000E-01	-1.531000000000E-01
	Si93	Si	-6.190000000000E-02	-4.088000000000E-01	3.469000000000E-01
	Si94	Si	2.443000000000E-01	-4.088000000000E-01	-3.469000000000E-01
	Si95	Si	5.700000000000E-03	1.588000000000E-01	-1.531000000000E-01
	Si96	Si	3.119000000000E-01	1.588000000000E-01	1.531000000000E-01
