data SIV
_chemical_name_common		'SIV'
_cell_length_a		8.59739429
_cell_length_b		8.59739429
_cell_length_c		28.13100000
_cell_angle_alpha		90.000000
_cell_angle_beta		90.000000
_cell_angle_gamma		70.117801
_space group_name_H-M_alt		'P 1'
_space_group_IT_number		1

loop_
	_atom_site_label
	_atom_site_type_symbol
	_atom_site_fract_x
	_atom_site_fract_y
	_atom_site_fract_z
	O1	O	2.506000000000E-01	-1.054000000000E-01	4.144000000000E-01
	O2	O	-2.506000000000E-01	1.054000000000E-01	-8.560000000000E-02
	O3	O	1.054000000000E-01	-2.506000000000E-01	-4.144000000000E-01
	O4	O	-1.054000000000E-01	2.506000000000E-01	8.560000000000E-02
	O5	O	-2.506000000000E-01	1.054000000000E-01	-4.144000000000E-01
	O6	O	2.506000000000E-01	-1.054000000000E-01	8.560000000000E-02
	O7	O	-1.054000000000E-01	2.506000000000E-01	4.144000000000E-01
	O8	O	1.054000000000E-01	-2.506000000000E-01	-8.560000000000E-02
	O9	O	4.396000000000E-01	4.320000000000E-02	3.752000000000E-01
	O10	O	-4.396000000000E-01	-4.320000000000E-02	-1.248000000000E-01
	O11	O	-4.320000000000E-02	-4.396000000000E-01	-3.752000000000E-01
	O12	O	4.320000000000E-02	4.396000000000E-01	1.248000000000E-01
	O13	O	-4.396000000000E-01	-4.320000000000E-02	-3.752000000000E-01
	O14	O	4.396000000000E-01	4.320000000000E-02	1.248000000000E-01
	O15	O	4.320000000000E-02	4.396000000000E-01	3.752000000000E-01
	O16	O	-4.320000000000E-02	-4.396000000000E-01	-1.248000000000E-01
	O17	O	1.271000000000E-01	1.271000000000E-01	3.503000000000E-01
	O18	O	-1.271000000000E-01	-1.271000000000E-01	-1.497000000000E-01
	O19	O	-1.271000000000E-01	-1.271000000000E-01	-3.503000000000E-01
	O20	O	1.271000000000E-01	1.271000000000E-01	1.497000000000E-01
	O21	O	3.379000000000E-01	-1.605000000000E-01	3.246000000000E-01
	O22	O	-3.379000000000E-01	1.605000000000E-01	-1.754000000000E-01
	O23	O	1.605000000000E-01	-3.379000000000E-01	-3.246000000000E-01
	O24	O	-1.605000000000E-01	3.379000000000E-01	1.754000000000E-01
	O25	O	-3.379000000000E-01	1.605000000000E-01	-3.246000000000E-01
	O26	O	3.379000000000E-01	-1.605000000000E-01	1.754000000000E-01
	O27	O	-1.605000000000E-01	3.379000000000E-01	3.246000000000E-01
	O28	O	1.605000000000E-01	-3.379000000000E-01	-1.754000000000E-01
	O29	O	-4.104000000000E-01	2.300000000000E-01	3.356000000000E-01
	O30	O	4.104000000000E-01	-2.300000000000E-01	-1.644000000000E-01
	O31	O	-2.300000000000E-01	4.104000000000E-01	-3.356000000000E-01
	O32	O	2.300000000000E-01	-4.104000000000E-01	1.644000000000E-01
	O33	O	4.104000000000E-01	-2.300000000000E-01	-3.356000000000E-01
	O34	O	-4.104000000000E-01	2.300000000000E-01	1.644000000000E-01
	O35	O	2.300000000000E-01	-4.104000000000E-01	3.356000000000E-01
	O36	O	-2.300000000000E-01	4.104000000000E-01	-1.644000000000E-01
	O37	O	-3.226000000000E-01	2.900000000000E-01	2.500000000000E-01
	O38	O	3.226000000000E-01	-2.900000000000E-01	-2.500000000000E-01
	O39	O	-2.900000000000E-01	3.226000000000E-01	-2.500000000000E-01
	O40	O	2.900000000000E-01	-3.226000000000E-01	2.500000000000E-01
	O41	O	-4.635000000000E-01	-4.635000000000E-01	3.084000000000E-01
	O42	O	4.635000000000E-01	4.635000000000E-01	-1.916000000000E-01
	O43	O	4.635000000000E-01	4.635000000000E-01	-3.084000000000E-01
	O44	O	-4.635000000000E-01	-4.635000000000E-01	1.916000000000E-01
	O45	O	-5.340000000000E-02	-5.340000000000E-02	4.441000000000E-01
	O46	O	5.340000000000E-02	5.340000000000E-02	-5.590000000000E-02
	O47	O	5.340000000000E-02	5.340000000000E-02	-4.441000000000E-01
	O48	O	-5.340000000000E-02	-5.340000000000E-02	5.590000000000E-02
	O49	O	-3.557000000000E-01	1.439000000000E-01	4.254000000000E-01
	O50	O	3.557000000000E-01	-1.439000000000E-01	-7.460000000000E-02
	O51	O	-1.439000000000E-01	3.557000000000E-01	-4.254000000000E-01
	O52	O	1.439000000000E-01	-3.557000000000E-01	7.460000000000E-02
	O53	O	3.557000000000E-01	-1.439000000000E-01	-4.254000000000E-01
	O54	O	-3.557000000000E-01	1.439000000000E-01	7.460000000000E-02
	O55	O	1.439000000000E-01	-3.557000000000E-01	4.254000000000E-01
	O56	O	-1.439000000000E-01	3.557000000000E-01	-7.460000000000E-02
	O57	O	-1.997000000000E-01	1.997000000000E-01	-5.000000000000E-01
	O58	O	1.997000000000E-01	-1.997000000000E-01	-7.078061510483E-17
	O59	O	1.997000000000E-01	-1.997000000000E-01	-5.000000000000E-01
	O60	O	-1.997000000000E-01	1.997000000000E-01	0.000000000000E+00
	O61	O	3.567000000000E-01	3.567000000000E-01	3.994000000000E-01
	O62	O	-3.567000000000E-01	-3.567000000000E-01	-1.006000000000E-01
	O63	O	-3.567000000000E-01	-3.567000000000E-01	-3.994000000000E-01
	O64	O	3.567000000000E-01	3.567000000000E-01	1.006000000000E-01
	Si65	Si	2.887000000000E-01	-2.410000000000E-02	3.662000000000E-01
	Si66	Si	-2.887000000000E-01	2.410000000000E-02	-1.338000000000E-01
	Si67	Si	2.410000000000E-02	-2.887000000000E-01	-3.662000000000E-01
	Si68	Si	-2.410000000000E-02	2.887000000000E-01	1.338000000000E-01
	Si69	Si	-2.887000000000E-01	2.410000000000E-02	-3.662000000000E-01
	Si70	Si	2.887000000000E-01	-2.410000000000E-02	1.338000000000E-01
	Si71	Si	-2.410000000000E-02	2.887000000000E-01	3.662000000000E-01
	Si72	Si	2.410000000000E-02	-2.887000000000E-01	-1.338000000000E-01
	Si73	Si	-3.393000000000E-01	3.485000000000E-01	3.047000000000E-01
	Si74	Si	3.393000000000E-01	-3.485000000000E-01	-1.953000000000E-01
	Si75	Si	-3.485000000000E-01	3.393000000000E-01	-3.047000000000E-01
	Si76	Si	3.485000000000E-01	-3.393000000000E-01	1.953000000000E-01
	Si77	Si	3.393000000000E-01	-3.485000000000E-01	-3.047000000000E-01
	Si78	Si	-3.393000000000E-01	3.485000000000E-01	1.953000000000E-01
	Si79	Si	3.485000000000E-01	-3.393000000000E-01	3.047000000000E-01
	Si80	Si	-3.485000000000E-01	3.393000000000E-01	-1.953000000000E-01
	Si81	Si	-1.781000000000E-01	1.349000000000E-01	4.459000000000E-01
	Si82	Si	1.781000000000E-01	-1.349000000000E-01	-5.410000000000E-02
	Si83	Si	-1.349000000000E-01	1.781000000000E-01	-4.459000000000E-01
	Si84	Si	1.349000000000E-01	-1.781000000000E-01	5.410000000000E-02
	Si85	Si	1.781000000000E-01	-1.349000000000E-01	-4.459000000000E-01
	Si86	Si	-1.781000000000E-01	1.349000000000E-01	5.410000000000E-02
	Si87	Si	1.349000000000E-01	-1.781000000000E-01	4.459000000000E-01
	Si88	Si	-1.349000000000E-01	1.781000000000E-01	-5.410000000000E-02
	Si89	Si	1.940000000000E-01	-4.928000000000E-01	3.839000000000E-01
	Si90	Si	-1.940000000000E-01	4.928000000000E-01	-1.161000000000E-01
	Si91	Si	4.928000000000E-01	-1.940000000000E-01	-3.839000000000E-01
	Si92	Si	-4.928000000000E-01	1.940000000000E-01	1.161000000000E-01
	Si93	Si	-1.940000000000E-01	4.928000000000E-01	-3.839000000000E-01
	Si94	Si	1.940000000000E-01	-4.928000000000E-01	1.161000000000E-01
	Si95	Si	-4.928000000000E-01	1.940000000000E-01	3.839000000000E-01
	Si96	Si	4.928000000000E-01	-1.940000000000E-01	-1.161000000000E-01
