data SOD
_chemical_name_common		'SOD'
_cell_length_a		15.52783549
_cell_length_b		15.52783549
_cell_length_c		7.76391774
_cell_angle_alpha		109.471221
_cell_angle_beta		109.471221
_cell_angle_gamma		109.471221
_space group_name_H-M_alt		'P 1'
_space_group_IT_number		1

loop_
	_atom_site_label
	_atom_site_type_symbol
	_atom_site_fract_x
	_atom_site_fract_y
	_atom_site_fract_z
	O1	O	1.766500000000E-01	0.000000000000E+00	-3.533000000000E-01
	O2	O	1.766500000000E-01	3.533000000000E-01	3.533000000000E-01
	O3	O	-1.766500000000E-01	-3.533000000000E-01	-3.533000000000E-01
	O4	O	-1.766500000000E-01	0.000000000000E+00	3.533000000000E-01
	O5	O	-1.766500000000E-01	1.766500000000E-01	0.000000000000E+00
	O6	O	0.000000000000E+00	-1.766500000000E-01	3.533000000000E-01
	O7	O	1.766500000000E-01	-1.766500000000E-01	0.000000000000E+00
	O8	O	3.533000000000E-01	1.766500000000E-01	3.533000000000E-01
	O9	O	1.766500000000E-01	1.766500000000E-01	-2.934000000000E-01
	O10	O	-3.533000000000E-01	-1.766500000000E-01	-3.533000000000E-01
	O11	O	-1.766500000000E-01	-1.766500000000E-01	2.934000000000E-01
	O12	O	0.000000000000E+00	1.766500000000E-01	-3.533000000000E-01
	Si13	Si	2.500000000000E-01	-3.750000000000E-01	-2.500000000000E-01
	Si14	Si	2.500000000000E-01	-1.250000000000E-01	2.500000000000E-01
	Si15	Si	-1.250000000000E-01	2.500000000000E-01	2.500000000000E-01
	Si16	Si	-3.750000000000E-01	-1.250000000000E-01	-5.000000000000E-01
	Si17	Si	-3.750000000000E-01	2.500000000000E-01	-2.500000000000E-01
	Si18	Si	-1.250000000000E-01	-3.750000000000E-01	5.000000000000E-01
	O19	O	3.233500000000E-01	1.766500000000E-01	0.000000000000E+00
	O20	O	3.233500000000E-01	-3.233500000000E-01	0.000000000000E+00
	O21	O	1.766500000000E-01	-1.467000000000E-01	3.533000000000E-01
	O22	O	0.000000000000E+00	3.233500000000E-01	3.533000000000E-01
	O23	O	-5.000000000000E-01	-1.766500000000E-01	3.533000000000E-01
	O24	O	-5.000000000000E-01	3.233500000000E-01	3.533000000000E-01
	O25	O	-3.233500000000E-01	3.533000000000E-01	3.533000000000E-01
	O26	O	1.766500000000E-01	3.233500000000E-01	0.000000000000E+00
	O27	O	-3.233500000000E-01	-1.766500000000E-01	0.000000000000E+00
	O28	O	-3.233500000000E-01	3.233500000000E-01	0.000000000000E+00
	O29	O	-3.233500000000E-01	-1.467000000000E-01	3.533000000000E-01
	O30	O	3.533000000000E-01	-3.233500000000E-01	3.533000000000E-01
	O31	O	-1.467000000000E-01	1.766500000000E-01	3.533000000000E-01
	O32	O	-1.467000000000E-01	-3.233500000000E-01	3.533000000000E-01
	O33	O	-3.233500000000E-01	0.000000000000E+00	-3.533000000000E-01
	O34	O	1.766500000000E-01	-3.233500000000E-01	-2.934000000000E-01
	O35	O	-3.233500000000E-01	1.766500000000E-01	-2.934000000000E-01
	O36	O	-3.233500000000E-01	-3.233500000000E-01	-2.934000000000E-01
	O37	O	-1.766500000000E-01	1.467000000000E-01	-3.533000000000E-01
	O38	O	-3.533000000000E-01	3.233500000000E-01	-3.533000000000E-01
	O39	O	1.467000000000E-01	-1.766500000000E-01	-3.533000000000E-01
	O40	O	1.467000000000E-01	3.233500000000E-01	-3.533000000000E-01
	O41	O	3.233500000000E-01	-3.533000000000E-01	-3.533000000000E-01
	O42	O	-1.766500000000E-01	3.233500000000E-01	2.934000000000E-01
	O43	O	3.233500000000E-01	-1.766500000000E-01	2.934000000000E-01
	O44	O	3.233500000000E-01	3.233500000000E-01	2.934000000000E-01
	O45	O	3.233500000000E-01	1.467000000000E-01	-3.533000000000E-01
	O46	O	0.000000000000E+00	-3.233500000000E-01	-3.533000000000E-01
	O47	O	-5.000000000000E-01	1.766500000000E-01	-3.533000000000E-01
	O48	O	-5.000000000000E-01	-3.233500000000E-01	-3.533000000000E-01
	O49	O	-3.233500000000E-01	-5.000000000000E-01	-3.533000000000E-01
	Si50	Si	2.500000000000E-01	1.250000000000E-01	-2.500000000000E-01
	Si51	Si	-2.500000000000E-01	-3.750000000000E-01	-2.500000000000E-01
	Si52	Si	-2.500000000000E-01	1.250000000000E-01	-2.500000000000E-01
	O53	O	-1.766500000000E-01	-5.000000000000E-01	3.533000000000E-01
	Si54	Si	2.500000000000E-01	3.750000000000E-01	2.500000000000E-01
	Si55	Si	-2.500000000000E-01	-1.250000000000E-01	2.500000000000E-01
	Si56	Si	-2.500000000000E-01	3.750000000000E-01	2.500000000000E-01
	O57	O	3.233500000000E-01	0.000000000000E+00	3.533000000000E-01
	Si58	Si	-1.250000000000E-01	-2.500000000000E-01	2.500000000000E-01
	Si59	Si	3.750000000000E-01	2.500000000000E-01	2.500000000000E-01
	Si60	Si	3.750000000000E-01	-2.500000000000E-01	2.500000000000E-01
	O61	O	3.233500000000E-01	-5.000000000000E-01	3.533000000000E-01
	Si62	Si	-3.750000000000E-01	3.750000000000E-01	-5.000000000000E-01
	Si63	Si	1.250000000000E-01	-1.250000000000E-01	-5.000000000000E-01
	Si64	Si	1.250000000000E-01	3.750000000000E-01	5.000000000000E-01
	O65	O	1.766500000000E-01	-5.000000000000E-01	-3.533000000000E-01
	Si66	Si	-3.750000000000E-01	-2.500000000000E-01	-2.500000000000E-01
	Si67	Si	1.250000000000E-01	2.500000000000E-01	-2.500000000000E-01
	Si68	Si	1.250000000000E-01	-2.500000000000E-01	-2.500000000000E-01
	O69	O	-1.766500000000E-01	-3.233500000000E-01	0.000000000000E+00
	Si70	Si	-1.250000000000E-01	1.250000000000E-01	-5.000000000000E-01
	Si71	Si	3.750000000000E-01	-3.750000000000E-01	-5.000000000000E-01
	Si72	Si	3.750000000000E-01	1.250000000000E-01	-5.000000000000E-01
