data SOR
_chemical_name_common		'SOR'
_cell_length_a		13.70545288
_cell_length_b		13.70545288
_cell_length_c		7.58770000
_cell_angle_alpha		90.000000
_cell_angle_beta		90.000000
_cell_angle_gamma		99.544050
_space group_name_H-M_alt		'P 1'
_space_group_IT_number		1

loop_
	_atom_site_label
	_atom_site_type_symbol
	_atom_site_fract_x
	_atom_site_fract_y
	_atom_site_fract_z
	Si1	Si	3.553800000000E-01	-1.825000000000E-01	2.993400000000E-01
	Si2	Si	-3.553800000000E-01	1.825000000000E-01	2.993400000000E-01
	Si3	Si	1.825000000000E-01	-3.553800000000E-01	-2.993400000000E-01
	Si4	Si	-1.825000000000E-01	3.553800000000E-01	-2.993400000000E-01
	Si5	Si	-3.553800000000E-01	1.825000000000E-01	-2.993400000000E-01
	Si6	Si	3.553800000000E-01	-1.825000000000E-01	-2.993400000000E-01
	Si7	Si	-1.825000000000E-01	3.553800000000E-01	2.993400000000E-01
	Si8	Si	1.825000000000E-01	-3.553800000000E-01	2.993400000000E-01
	Si9	Si	2.070200000000E-01	-3.442000000000E-02	2.993300000000E-01
	Si10	Si	-2.070200000000E-01	3.442000000000E-02	2.993300000000E-01
	Si11	Si	3.442000000000E-02	-2.070200000000E-01	-2.993300000000E-01
	Si12	Si	-3.442000000000E-02	2.070200000000E-01	-2.993300000000E-01
	Si13	Si	-2.070200000000E-01	3.442000000000E-02	-2.993300000000E-01
	Si14	Si	2.070200000000E-01	-3.442000000000E-02	-2.993300000000E-01
	Si15	Si	-3.442000000000E-02	2.070200000000E-01	2.993300000000E-01
	Si16	Si	3.442000000000E-02	-2.070200000000E-01	2.993300000000E-01
	Si17	Si	4.952300000000E-01	1.163300000000E-01	0.000000000000E+00
	Si18	Si	-4.952300000000E-01	-1.163300000000E-01	0.000000000000E+00
	Si19	Si	-1.163300000000E-01	-4.952300000000E-01	0.000000000000E+00
	Si20	Si	1.163300000000E-01	4.952300000000E-01	0.000000000000E+00
	Si21	Si	2.636000000000E-01	1.207600000000E-01	0.000000000000E+00
	Si22	Si	-2.636000000000E-01	-1.207600000000E-01	0.000000000000E+00
	Si23	Si	-1.207600000000E-01	-2.636000000000E-01	0.000000000000E+00
	Si24	Si	1.207600000000E-01	2.636000000000E-01	0.000000000000E+00
	O25	O	3.049500000000E-01	-8.467000000000E-02	2.876400000000E-01
	O26	O	-3.049500000000E-01	8.467000000000E-02	2.876400000000E-01
	O27	O	8.467000000000E-02	-3.049500000000E-01	-2.876400000000E-01
	O28	O	-8.467000000000E-02	3.049500000000E-01	-2.876400000000E-01
	O29	O	-3.049500000000E-01	8.467000000000E-02	-2.876400000000E-01
	O30	O	3.049500000000E-01	-8.467000000000E-02	-2.876400000000E-01
	O31	O	-8.467000000000E-02	3.049500000000E-01	2.876400000000E-01
	O32	O	8.467000000000E-02	-3.049500000000E-01	2.876400000000E-01
	O33	O	4.509900000000E-01	-1.680700000000E-01	1.729100000000E-01
	O34	O	-4.509900000000E-01	1.680700000000E-01	1.729100000000E-01
	O35	O	1.680700000000E-01	-4.509900000000E-01	-1.729100000000E-01
	O36	O	-1.680700000000E-01	4.509900000000E-01	-1.729100000000E-01
	O37	O	-4.509900000000E-01	1.680700000000E-01	-1.729100000000E-01
	O38	O	4.509900000000E-01	-1.680700000000E-01	-1.729100000000E-01
	O39	O	-1.680700000000E-01	4.509900000000E-01	1.729100000000E-01
	O40	O	1.680700000000E-01	-4.509900000000E-01	1.729100000000E-01
	O41	O	2.773300000000E-01	-2.773300000000E-01	2.374700000000E-01
	O42	O	-2.773300000000E-01	2.773300000000E-01	2.374700000000E-01
	O43	O	2.773300000000E-01	-2.773300000000E-01	-2.374700000000E-01
	O44	O	-2.773300000000E-01	2.773300000000E-01	-2.374700000000E-01
	O45	O	3.881200000000E-01	-1.977600000000E-01	5.000000000000E-01
	O46	O	-3.881200000000E-01	1.977600000000E-01	5.000000000000E-01
	O47	O	1.977600000000E-01	-3.881200000000E-01	5.000000000000E-01
	O48	O	-1.977600000000E-01	3.881200000000E-01	5.000000000000E-01
	O49	O	1.125900000000E-01	-1.125900000000E-01	2.362800000000E-01
	O50	O	-1.125900000000E-01	1.125900000000E-01	2.362800000000E-01
	O51	O	1.125900000000E-01	-1.125900000000E-01	-2.362800000000E-01
	O52	O	-1.125900000000E-01	1.125900000000E-01	-2.362800000000E-01
	O53	O	1.911400000000E-01	-2.140000000000E-03	5.000000000000E-01
	O54	O	-1.911400000000E-01	2.140000000000E-03	5.000000000000E-01
	O55	O	2.140000000000E-03	-1.911400000000E-01	5.000000000000E-01
	O56	O	-2.140000000000E-03	1.911400000000E-01	5.000000000000E-01
	O57	O	2.201000000000E-01	6.134000000000E-02	1.734600000000E-01
	O58	O	-2.201000000000E-01	-6.134000000000E-02	1.734600000000E-01
	O59	O	-6.134000000000E-02	-2.201000000000E-01	-1.734600000000E-01
	O60	O	6.134000000000E-02	2.201000000000E-01	-1.734600000000E-01
	O61	O	-2.201000000000E-01	-6.134000000000E-02	-1.734600000000E-01
	O62	O	2.201000000000E-01	6.134000000000E-02	-1.734600000000E-01
	O63	O	6.134000000000E-02	2.201000000000E-01	1.734600000000E-01
	O64	O	-6.134000000000E-02	-2.201000000000E-01	1.734600000000E-01
	O65	O	5.000000000000E-01	-1.629345081763E-17	0.000000000000E+00
	O66	O	1.272278634155E-17	5.000000000000E-01	0.000000000000E+00
	O67	O	3.824200000000E-01	1.351200000000E-01	0.000000000000E+00
	O68	O	-3.824200000000E-01	-1.351200000000E-01	0.000000000000E+00
	O69	O	-1.351200000000E-01	-3.824200000000E-01	0.000000000000E+00
	O70	O	1.351200000000E-01	3.824200000000E-01	0.000000000000E+00
	O71	O	2.263000000000E-01	2.263000000000E-01	0.000000000000E+00
	O72	O	-2.263000000000E-01	-2.263000000000E-01	0.000000000000E+00
