data SOS
_chemical_name_common		'SOS'
_cell_length_a		20.43700000
_cell_length_b		7.11600000
_cell_length_c		9.72600000
_cell_angle_alpha		90.000000
_cell_angle_beta		90.000000
_cell_angle_gamma		90.000000
_space group_name_H-M_alt		'P 1'
_space_group_IT_number		1

loop_
	_atom_site_label
	_atom_site_type_symbol
	_atom_site_fract_x
	_atom_site_fract_y
	_atom_site_fract_z
	O1	O	2.046000000000E-01	5.000000000000E-01	0.000000000000E+00
	O2	O	2.954000000000E-01	5.000000000000E-01	5.000000000000E-01
	O3	O	-2.046000000000E-01	5.000000000000E-01	0.000000000000E+00
	O4	O	-2.954000000000E-01	5.000000000000E-01	5.000000000000E-01
	O5	O	1.245000000000E-01	-3.963000000000E-01	-1.997000000000E-01
	O6	O	3.755000000000E-01	3.963000000000E-01	3.003000000000E-01
	O7	O	1.245000000000E-01	3.963000000000E-01	1.997000000000E-01
	O8	O	3.755000000000E-01	-3.963000000000E-01	-3.003000000000E-01
	O9	O	-1.245000000000E-01	3.963000000000E-01	1.997000000000E-01
	O10	O	-3.755000000000E-01	-3.963000000000E-01	-3.003000000000E-01
	O11	O	-1.245000000000E-01	-3.963000000000E-01	-1.997000000000E-01
	O12	O	-3.755000000000E-01	3.963000000000E-01	3.003000000000E-01
	O13	O	1.726000000000E-01	0.000000000000E+00	0.000000000000E+00
	O14	O	3.274000000000E-01	0.000000000000E+00	5.000000000000E-01
	O15	O	-1.726000000000E-01	0.000000000000E+00	0.000000000000E+00
	O16	O	-3.274000000000E-01	0.000000000000E+00	5.000000000000E-01
	O17	O	1.751000000000E-01	-2.642000000000E-01	1.966000000000E-01
	O18	O	3.249000000000E-01	2.642000000000E-01	-3.034000000000E-01
	O19	O	1.751000000000E-01	2.642000000000E-01	-1.966000000000E-01
	O20	O	3.249000000000E-01	-2.642000000000E-01	3.034000000000E-01
	O21	O	-1.751000000000E-01	2.642000000000E-01	-1.966000000000E-01
	O22	O	-3.249000000000E-01	-2.642000000000E-01	3.034000000000E-01
	O23	O	-1.751000000000E-01	-2.642000000000E-01	1.966000000000E-01
	O24	O	-3.249000000000E-01	2.642000000000E-01	-3.034000000000E-01
	O25	O	2.500000000000E-01	-4.450000000000E-01	-2.500000000000E-01
	O26	O	2.500000000000E-01	4.450000000000E-01	2.500000000000E-01
	O27	O	-2.500000000000E-01	4.450000000000E-01	2.500000000000E-01
	O28	O	-2.500000000000E-01	-4.450000000000E-01	-2.500000000000E-01
	O29	O	9.390000000000E-02	-3.610000000000E-02	-2.040000000000E-01
	O30	O	4.061000000000E-01	3.610000000000E-02	2.960000000000E-01
	O31	O	9.390000000000E-02	3.610000000000E-02	2.040000000000E-01
	O32	O	4.061000000000E-01	-3.610000000000E-02	-2.960000000000E-01
	O33	O	-9.390000000000E-02	3.610000000000E-02	2.040000000000E-01
	O34	O	-4.061000000000E-01	-3.610000000000E-02	-2.960000000000E-01
	O35	O	-9.390000000000E-02	-3.610000000000E-02	-2.040000000000E-01
	O36	O	-4.061000000000E-01	3.610000000000E-02	2.960000000000E-01
	O37	O	7.790000000000E-02	2.328000000000E-01	-2.040000000000E-02
	O38	O	4.221000000000E-01	-2.328000000000E-01	4.796000000000E-01
	O39	O	7.790000000000E-02	-2.328000000000E-01	2.040000000000E-02
	O40	O	4.221000000000E-01	2.328000000000E-01	-4.796000000000E-01
	O41	O	-7.790000000000E-02	-2.328000000000E-01	2.040000000000E-02
	O42	O	-4.221000000000E-01	2.328000000000E-01	-4.796000000000E-01
	O43	O	-7.790000000000E-02	2.328000000000E-01	-2.040000000000E-02
	O44	O	-4.221000000000E-01	-2.328000000000E-01	4.796000000000E-01
	O45	O	0.000000000000E+00	2.901000000000E-01	1.907000000000E-01
	O46	O	5.000000000000E-01	-2.901000000000E-01	-3.093000000000E-01
	O47	O	0.000000000000E+00	-2.901000000000E-01	-1.907000000000E-01
	O48	O	5.000000000000E-01	2.901000000000E-01	3.093000000000E-01
	Si49	Si	1.884000000000E-01	-4.823000000000E-01	1.614000000000E-01
	Si50	Si	3.116000000000E-01	4.823000000000E-01	-3.386000000000E-01
	Si51	Si	1.884000000000E-01	4.823000000000E-01	-1.614000000000E-01
	Si52	Si	3.116000000000E-01	-4.823000000000E-01	3.386000000000E-01
	Si53	Si	-1.884000000000E-01	4.823000000000E-01	-1.614000000000E-01
	Si54	Si	-3.116000000000E-01	-4.823000000000E-01	3.386000000000E-01
	Si55	Si	-1.884000000000E-01	-4.823000000000E-01	1.614000000000E-01
	Si56	Si	-3.116000000000E-01	4.823000000000E-01	-3.386000000000E-01
	Si57	Si	7.370000000000E-02	2.402000000000E-01	1.452000000000E-01
	Si58	Si	4.263000000000E-01	-2.402000000000E-01	-3.548000000000E-01
	Si59	Si	7.370000000000E-02	-2.402000000000E-01	-1.452000000000E-01
	Si60	Si	4.263000000000E-01	2.402000000000E-01	3.548000000000E-01
	Si61	Si	-7.370000000000E-02	-2.402000000000E-01	-1.452000000000E-01
	Si62	Si	-4.263000000000E-01	2.402000000000E-01	3.548000000000E-01
	Si63	Si	-7.370000000000E-02	2.402000000000E-01	1.452000000000E-01
	Si64	Si	-4.263000000000E-01	-2.402000000000E-01	-3.548000000000E-01
	Si65	Si	1.307000000000E-01	-1.189000000000E-01	1.112000000000E-01
	Si66	Si	3.693000000000E-01	1.189000000000E-01	-3.888000000000E-01
	Si67	Si	1.307000000000E-01	1.189000000000E-01	-1.112000000000E-01
	Si68	Si	3.693000000000E-01	-1.189000000000E-01	3.888000000000E-01
	Si69	Si	-1.307000000000E-01	1.189000000000E-01	-1.112000000000E-01
	Si70	Si	-3.693000000000E-01	-1.189000000000E-01	3.888000000000E-01
	Si71	Si	-1.307000000000E-01	-1.189000000000E-01	1.112000000000E-01
	Si72	Si	-3.693000000000E-01	1.189000000000E-01	-3.888000000000E-01
