data SSY
_chemical_name_common		'SSY'
_cell_length_a		5.25800000
_cell_length_b		22.57900000
_cell_length_c		13.97700000
_cell_angle_alpha		90.000000
_cell_angle_beta		90.000000
_cell_angle_gamma		90.000000
_space group_name_H-M_alt		'P 1'
_space_group_IT_number		1

loop_
	_atom_site_label
	_atom_site_type_symbol
	_atom_site_fract_x
	_atom_site_fract_y
	_atom_site_fract_z
	O1	O	-4.222986019875E-17	5.810000000000E-02	2.104000000000E-01
	O2	O	-1.266895805963E-16	-5.810000000000E-02	2.104000000000E-01
	O3	O	-5.000000000000E-01	4.419000000000E-01	-2.104000000000E-01
	O4	O	-5.000000000000E-01	-4.419000000000E-01	-2.104000000000E-01
	O5	O	2.500000000000E-01	-3.933648167324E-17	7.740000000000E-02
	O6	O	-2.500000000000E-01	0.000000000000E+00	7.740000000000E-02
	O7	O	-2.500000000000E-01	-5.000000000000E-01	-7.740000000000E-02
	O8	O	2.500000000000E-01	-5.000000000000E-01	-7.740000000000E-02
	O9	O	-5.000000000000E-01	-5.830000000000E-02	-5.520000000000E-02
	O10	O	-5.000000000000E-01	5.830000000000E-02	-5.520000000000E-02
	O11	O	-1.266895805963E-16	-4.417000000000E-01	5.520000000000E-02
	O12	O	8.445972039750E-17	4.417000000000E-01	5.520000000000E-02
	O13	O	-4.222986019875E-17	-1.415000000000E-01	3.407000000000E-01
	O14	O	-1.266895805963E-16	1.415000000000E-01	3.407000000000E-01
	O15	O	-5.000000000000E-01	-3.585000000000E-01	-3.407000000000E-01
	O16	O	-5.000000000000E-01	3.585000000000E-01	-3.407000000000E-01
	O17	O	2.500000000000E-01	-1.575000000000E-01	1.803000000000E-01
	O18	O	-2.500000000000E-01	1.575000000000E-01	1.803000000000E-01
	O19	O	-2.500000000000E-01	-3.425000000000E-01	-1.803000000000E-01
	O20	O	2.500000000000E-01	3.425000000000E-01	-1.803000000000E-01
	O21	O	2.500000000000E-01	-3.425000000000E-01	-1.803000000000E-01
	O22	O	-2.500000000000E-01	3.425000000000E-01	-1.803000000000E-01
	O23	O	-2.500000000000E-01	-1.575000000000E-01	1.803000000000E-01
	O24	O	2.500000000000E-01	1.575000000000E-01	1.803000000000E-01
	O25	O	-4.222986019875E-17	-1.836000000000E-01	-4.824000000000E-01
	O26	O	-1.266895805963E-16	1.836000000000E-01	-4.824000000000E-01
	O27	O	-5.000000000000E-01	-3.164000000000E-01	4.824000000000E-01
	O28	O	-5.000000000000E-01	3.164000000000E-01	4.824000000000E-01
	O29	O	2.499000000000E-01	-2.383000000000E-01	3.801000000000E-01
	O30	O	-2.499000000000E-01	2.383000000000E-01	3.801000000000E-01
	O31	O	-2.501000000000E-01	-2.617000000000E-01	-3.801000000000E-01
	O32	O	2.501000000000E-01	2.617000000000E-01	-3.801000000000E-01
	O33	O	2.501000000000E-01	-2.617000000000E-01	-3.801000000000E-01
	O34	O	-2.501000000000E-01	2.617000000000E-01	-3.801000000000E-01
	O35	O	-2.499000000000E-01	-2.383000000000E-01	3.801000000000E-01
	O36	O	2.499000000000E-01	2.383000000000E-01	3.801000000000E-01
	O37	O	-4.222986019875E-17	-3.339000000000E-01	-1.850000000000E-02
	O38	O	-1.266895805963E-16	3.339000000000E-01	-1.850000000000E-02
	O39	O	-5.000000000000E-01	-1.661000000000E-01	1.850000000000E-02
	O40	O	-5.000000000000E-01	1.661000000000E-01	1.850000000000E-02
	O41	O	-2.500000000000E-01	-3.562000000000E-01	1.401000000000E-01
	O42	O	2.500000000000E-01	3.562000000000E-01	1.401000000000E-01
	O43	O	2.500000000000E-01	-1.438000000000E-01	-1.401000000000E-01
	O44	O	-2.500000000000E-01	1.438000000000E-01	-1.401000000000E-01
	O45	O	-2.500000000000E-01	-1.438000000000E-01	-1.401000000000E-01
	O46	O	2.500000000000E-01	1.438000000000E-01	-1.401000000000E-01
	O47	O	2.500000000000E-01	-3.562000000000E-01	1.401000000000E-01
	O48	O	-2.500000000000E-01	3.562000000000E-01	1.401000000000E-01
	O49	O	-5.000000000000E-01	-3.230000000000E-01	2.930000000000E-01
	O50	O	-5.000000000000E-01	3.230000000000E-01	2.930000000000E-01
	O51	O	-1.266895805963E-16	-1.770000000000E-01	-2.930000000000E-01
	O52	O	8.445972039750E-17	1.770000000000E-01	-2.930000000000E-01
	O53	O	-5.000000000000E-01	-2.552000000000E-01	1.393000000000E-01
	O54	O	-5.000000000000E-01	2.552000000000E-01	1.393000000000E-01
	O55	O	-1.266895805963E-16	-2.448000000000E-01	-1.393000000000E-01
	O56	O	8.445972039750E-17	2.448000000000E-01	-1.393000000000E-01
	Si57	Si	-4.222986019875E-17	-3.933648167324E-17	1.437000000000E-01
	Si58	Si	-5.000000000000E-01	-5.000000000000E-01	-1.437000000000E-01
	Si59	Si	-5.000000000000E-01	-3.933648167324E-17	1.110000000000E-02
	Si60	Si	-1.266895805963E-16	-5.000000000000E-01	-1.110000000000E-02
	Si61	Si	-4.222986019875E-17	-1.286000000000E-01	2.273000000000E-01
	Si62	Si	-1.266895805963E-16	1.286000000000E-01	2.273000000000E-01
	Si63	Si	-5.000000000000E-01	-3.714000000000E-01	-2.273000000000E-01
	Si64	Si	-5.000000000000E-01	3.714000000000E-01	-2.273000000000E-01
	Si65	Si	-4.222986019875E-17	-2.004000000000E-01	4.057000000000E-01
	Si66	Si	-1.266895805963E-16	2.004000000000E-01	4.057000000000E-01
	Si67	Si	-5.000000000000E-01	-2.996000000000E-01	-4.057000000000E-01
	Si68	Si	-5.000000000000E-01	2.996000000000E-01	-4.057000000000E-01
	Si69	Si	-4.222986019875E-17	-3.720000000000E-01	7.870000000000E-02
	Si70	Si	-1.266895805963E-16	3.720000000000E-01	7.870000000000E-02
	Si71	Si	-5.000000000000E-01	-1.280000000000E-01	-7.870000000000E-02
	Si72	Si	-5.000000000000E-01	1.280000000000E-01	-7.870000000000E-02
	Si73	Si	-5.000000000000E-01	-2.793000000000E-01	3.840000000000E-01
	Si74	Si	-5.000000000000E-01	2.793000000000E-01	3.840000000000E-01
	Si75	Si	-1.266895805963E-16	-2.207000000000E-01	-3.840000000000E-01
	Si76	Si	8.445972039750E-17	2.207000000000E-01	-3.840000000000E-01
	Si77	Si	-5.000000000000E-01	-3.224000000000E-01	1.778000000000E-01
	Si78	Si	-5.000000000000E-01	3.224000000000E-01	1.778000000000E-01
	Si79	Si	-1.266895805963E-16	-1.776000000000E-01	-1.778000000000E-01
	Si80	Si	8.445972039750E-17	1.776000000000E-01	-1.778000000000E-01
	Si81	Si	-5.000000000000E-01	-1.842000000000E-01	1.299000000000E-01
	Si82	Si	-5.000000000000E-01	1.842000000000E-01	1.299000000000E-01
	Si83	Si	-1.266895805963E-16	-3.158000000000E-01	-1.299000000000E-01
	Si84	Si	8.445972039750E-17	3.158000000000E-01	-1.299000000000E-01
