data STF
_chemical_name_common		'STF'
_cell_length_a		23.02921712
_cell_length_b		11.51460856
_cell_length_c		7.47700000
_cell_angle_alpha		84.508937
_cell_angle_beta		95.491063
_cell_angle_gamma		75.532195
_space group_name_H-M_alt		'P 1'
_space_group_IT_number		1

loop_
	_atom_site_label
	_atom_site_type_symbol
	_atom_site_fract_x
	_atom_site_fract_y
	_atom_site_fract_z
	O1	O	-1.770000000000E-01	3.540000000000E-01	-3.878000000000E-01
	O2	O	1.770000000000E-01	-3.540000000000E-01	3.878000000000E-01
	O3	O	-1.899000000000E-01	2.356000000000E-01	3.329000000000E-01
	O4	O	1.178000000000E-01	-3.798000000000E-01	-3.329000000000E-01
	O5	O	1.899000000000E-01	-2.356000000000E-01	-3.329000000000E-01
	O6	O	-1.178000000000E-01	3.798000000000E-01	3.329000000000E-01
	O7	O	-2.355500000000E-01	4.711000000000E-01	3.038000000000E-01
	O8	O	2.355500000000E-01	-4.711000000000E-01	-3.038000000000E-01
	O9	O	-1.594000000000E-01	4.632000000000E-01	-1.024000000000E-01
	O10	O	2.316000000000E-01	-3.188000000000E-01	1.024000000000E-01
	O11	O	1.594000000000E-01	-4.632000000000E-01	1.024000000000E-01
	O12	O	-2.316000000000E-01	3.188000000000E-01	-1.024000000000E-01
	O13	O	1.499999999999E-04	3.493000000000E-01	3.772000000000E-01
	O14	O	1.746500000000E-01	3.000000000000E-04	-3.772000000000E-01
	O15	O	-1.499999999999E-04	-3.493000000000E-01	-3.772000000000E-01
	O16	O	-1.746500000000E-01	-3.000000000000E-04	3.772000000000E-01
	O17	O	9.210000000000E-02	4.058000000000E-01	2.424000000000E-01
	O18	O	2.029000000000E-01	1.842000000000E-01	-2.424000000000E-01
	O19	O	-9.210000000000E-02	-4.058000000000E-01	-2.424000000000E-01
	O20	O	-2.029000000000E-01	-1.842000000000E-01	2.424000000000E-01
	O21	O	7.270000000000E-02	4.436000000000E-01	-4.251000000000E-01
	O22	O	2.218000000000E-01	1.454000000000E-01	4.251000000000E-01
	O23	O	-7.270000000000E-02	-4.436000000000E-01	4.251000000000E-01
	O24	O	-2.218000000000E-01	-1.454000000000E-01	-4.251000000000E-01
	O25	O	1.109000000000E-01	2.218000000000E-01	-5.000000000000E-01
	O26	O	-1.109000000000E-01	-2.218000000000E-01	-5.000000000000E-01
	O27	O	6.630000000000E-02	-4.938000000000E-01	-9.810000000000E-02
	O28	O	-2.469000000000E-01	1.326000000000E-01	9.810000000000E-02
	O29	O	-6.630000000000E-02	4.938000000000E-01	9.810000000000E-02
	O30	O	2.469000000000E-01	-1.326000000000E-01	-9.810000000000E-02
	O31	O	1.617000000000E-01	3.234000000000E-01	0.000000000000E+00
	O32	O	-1.617000000000E-01	-3.234000000000E-01	0.000000000000E+00
	Si33	Si	1.198500000000E-01	4.429000000000E-01	6.270000000000E-02
	Si34	Si	-2.785500000000E-01	2.397000000000E-01	-6.270000000000E-02
	Si35	Si	-1.198500000000E-01	-4.429000000000E-01	-6.270000000000E-02
	Si36	Si	2.785500000000E-01	-2.397000000000E-01	6.270000000000E-02
	Si37	Si	6.920000000000E-02	3.548000000000E-01	4.229000000000E-01
	Si38	Si	1.774000000000E-01	1.384000000000E-01	-4.229000000000E-01
	Si39	Si	-6.920000000000E-02	-3.548000000000E-01	-4.229000000000E-01
	Si40	Si	-1.774000000000E-01	-1.384000000000E-01	4.229000000000E-01
	Si41	Si	6.420000000000E-02	-4.444000000000E-01	-3.083000000000E-01
	Si42	Si	-2.222000000000E-01	1.284000000000E-01	3.083000000000E-01
	Si43	Si	-6.420000000000E-02	4.444000000000E-01	3.083000000000E-01
	Si44	Si	2.222000000000E-01	-1.284000000000E-01	-3.083000000000E-01
	Si45	Si	-1.800000000000E-01	3.600000000000E-01	3.954000000000E-01
	Si46	Si	1.800000000000E-01	-3.600000000000E-01	-3.954000000000E-01
	Si47	Si	-2.081000000000E-01	4.162000000000E-01	-2.246000000000E-01
	Si48	Si	2.081000000000E-01	-4.162000000000E-01	2.246000000000E-01
	O49	O	-3.230000000000E-01	-3.540000000000E-01	3.878000000000E-01
	O50	O	-3.891000000000E-01	2.218000000000E-01	-5.000000000000E-01
	O51	O	-4.998500000000E-01	3.493000000000E-01	3.772000000000E-01
	O52	O	3.891000000000E-01	-2.218000000000E-01	-5.000000000000E-01
	O53	O	2.644500000000E-01	4.711000000000E-01	3.038000000000E-01
	O54	O	-4.337000000000E-01	-4.938000000000E-01	-9.810000000000E-02
	O55	O	-3.253500000000E-01	3.000000000001E-04	-3.772000000000E-01
	O56	O	2.531000000000E-01	1.326000000000E-01	9.810000000000E-02
	O57	O	-3.822000000000E-01	-3.798000000000E-01	-3.329000000000E-01
	O58	O	4.337000000000E-01	4.938000000000E-01	9.810000000000E-02
	O59	O	4.998500000000E-01	-3.493000000000E-01	-3.772000000000E-01
	O60	O	-2.531000000000E-01	-1.326000000000E-01	-9.810000000000E-02
	O61	O	-2.644500000000E-01	-4.711000000000E-01	-3.038000000000E-01
	O62	O	-3.383000000000E-01	3.234000000000E-01	0.000000000000E+00
	O63	O	3.253500000000E-01	-3.000000000001E-04	3.772000000000E-01
	O64	O	3.383000000000E-01	-3.234000000000E-01	0.000000000000E+00
	O65	O	3.230000000000E-01	3.540000000000E-01	-3.878000000000E-01
	Si66	Si	-3.801500000000E-01	4.429000000000E-01	6.270000000000E-02
	O67	O	-4.079000000000E-01	4.058000000000E-01	2.424000000000E-01
	Si68	Si	2.214500000000E-01	2.397000000000E-01	-6.270000000000E-02
	O69	O	3.406000000000E-01	4.632000000000E-01	-1.024000000000E-01
	Si70	Si	3.801500000000E-01	-4.429000000000E-01	-6.270000000000E-02
	O71	O	-2.971000000000E-01	1.842000000000E-01	-2.424000000000E-01
	Si72	Si	-2.214500000000E-01	-2.397000000000E-01	6.270000000000E-02
	O73	O	-3.101000000000E-01	-2.356000000000E-01	-3.329000000000E-01
	Si74	Si	-4.308000000000E-01	3.548000000000E-01	4.229000000000E-01
	O75	O	4.079000000000E-01	-4.058000000000E-01	-2.424000000000E-01
	Si76	Si	-3.226000000000E-01	1.384000000000E-01	-4.229000000000E-01
	O77	O	-2.684000000000E-01	-3.188000000000E-01	1.024000000000E-01
	Si78	Si	4.308000000000E-01	-3.548000000000E-01	-4.229000000000E-01
	O79	O	2.971000000000E-01	-1.842000000000E-01	2.424000000000E-01
	Si80	Si	3.226000000000E-01	-1.384000000000E-01	4.229000000000E-01
	O81	O	3.101000000000E-01	2.356000000000E-01	3.329000000000E-01
	Si82	Si	-4.358000000000E-01	-4.444000000000E-01	-3.083000000000E-01
	O83	O	-4.273000000000E-01	4.436000000000E-01	-4.251000000000E-01
	Si84	Si	2.778000000000E-01	1.284000000000E-01	3.083000000000E-01
	O85	O	-3.406000000000E-01	-4.632000000000E-01	1.024000000000E-01
	Si86	Si	4.358000000000E-01	4.444000000000E-01	3.083000000000E-01
	O87	O	-2.782000000000E-01	1.454000000000E-01	4.251000000000E-01
	Si88	Si	-2.778000000000E-01	-1.284000000000E-01	-3.083000000000E-01
	O89	O	3.822000000000E-01	3.798000000000E-01	3.329000000000E-01
	Si90	Si	3.200000000000E-01	3.600000000000E-01	3.954000000000E-01
	O91	O	4.273000000000E-01	-4.436000000000E-01	4.251000000000E-01
	Si92	Si	-3.200000000000E-01	-3.600000000000E-01	-3.954000000000E-01
	O93	O	2.684000000000E-01	3.188000000000E-01	-1.024000000000E-01
	Si94	Si	2.919000000000E-01	4.162000000000E-01	-2.246000000000E-01
	O95	O	2.782000000000E-01	-1.454000000000E-01	-4.251000000000E-01
	Si96	Si	-2.919000000000E-01	-4.162000000000E-01	2.246000000000E-01
