data SVV
_chemical_name_common		'SVV'
_cell_length_a		9.36834539
_cell_length_b		9.36834539
_cell_length_c		21.26198000
_cell_angle_alpha		67.168605
_cell_angle_beta		112.831395
_cell_angle_gamma		88.917540
_space group_name_H-M_alt		'P 1'
_space_group_IT_number		1

loop_
	_atom_site_label
	_atom_site_type_symbol
	_atom_site_fract_x
	_atom_site_fract_y
	_atom_site_fract_z
	Si1	Si	-2.759800000000E-01	-1.680200000000E-01	4.824000000000E-02
	Si2	Si	-1.680200000000E-01	-2.759800000000E-01	-4.824000000000E-02
	Si3	Si	2.759800000000E-01	1.680200000000E-01	-4.824000000000E-02
	Si4	Si	1.680200000000E-01	2.759800000000E-01	4.824000000000E-02
	Si5	Si	4.144200000000E-01	-1.801000000000E-01	7.319000000000E-02
	Si6	Si	-1.801000000000E-01	4.144200000000E-01	-7.319000000000E-02
	Si7	Si	-4.144200000000E-01	1.801000000000E-01	-7.319000000000E-02
	Si8	Si	1.801000000000E-01	-4.144200000000E-01	7.319000000000E-02
	Si9	Si	2.229300000000E-01	7.010000000000E-03	2.047400000000E-01
	Si10	Si	7.010000000000E-03	2.229300000000E-01	-2.047400000000E-01
	Si11	Si	-2.229300000000E-01	-7.010000000000E-03	-2.047400000000E-01
	Si12	Si	-7.010000000000E-03	-2.229300000000E-01	2.047400000000E-01
	Si13	Si	4.742600000000E-01	-2.474200000000E-01	2.356200000000E-01
	Si14	Si	-2.474200000000E-01	4.742600000000E-01	-2.356200000000E-01
	Si15	Si	-4.742600000000E-01	2.474200000000E-01	-2.356200000000E-01
	Si16	Si	2.474200000000E-01	-4.742600000000E-01	2.356200000000E-01
	Si17	Si	3.367600000000E-01	1.558000000000E-01	3.178000000000E-01
	Si18	Si	1.558000000000E-01	3.367600000000E-01	-3.178000000000E-01
	Si19	Si	-3.367600000000E-01	-1.558000000000E-01	-3.178000000000E-01
	Si20	Si	-1.558000000000E-01	-3.367600000000E-01	3.178000000000E-01
	Si21	Si	-2.981100000000E-01	6.797000000000E-02	3.974800000000E-01
	Si22	Si	6.797000000000E-02	-2.981100000000E-01	-3.974800000000E-01
	Si23	Si	2.981100000000E-01	-6.797000000000E-02	-3.974800000000E-01
	Si24	Si	-6.797000000000E-02	2.981100000000E-01	3.974800000000E-01
	Si25	Si	1.905600000000E-01	3.958000000000E-02	4.312500000000E-01
	Si26	Si	3.958000000000E-02	1.905600000000E-01	-4.312500000000E-01
	Si27	Si	-1.905600000000E-01	-3.958000000000E-02	-4.312500000000E-01
	Si28	Si	-3.958000000000E-02	-1.905600000000E-01	4.312500000000E-01
	O29	O	-1.152900000000E-01	-2.222900000000E-01	1.244800000000E-01
	O30	O	-2.222900000000E-01	-1.152900000000E-01	-1.244800000000E-01
	O31	O	1.152900000000E-01	2.222900000000E-01	-1.244800000000E-01
	O32	O	2.222900000000E-01	1.152900000000E-01	1.244800000000E-01
	O33	O	-2.581200000000E-01	-2.581200000000E-01	0.000000000000E+00
	O34	O	2.581200000000E-01	2.581200000000E-01	0.000000000000E+00
	O35	O	-3.066800000000E-01	1.986000000000E-02	-5.900000000000E-04
	O36	O	1.986000000000E-02	-3.066800000000E-01	5.900000000000E-04
	O37	O	3.066800000000E-01	-1.986000000000E-02	5.900000000000E-04
	O38	O	-1.986000000000E-02	3.066800000000E-01	-5.900000000000E-04
	O39	O	-4.207000000000E-01	-2.155000000000E-01	6.969000000000E-02
	O40	O	-2.155000000000E-01	-4.207000000000E-01	-6.969000000000E-02
	O41	O	4.207000000000E-01	2.155000000000E-01	-6.969000000000E-02
	O42	O	2.155000000000E-01	4.207000000000E-01	6.969000000000E-02
	O43	O	4.500600000000E-01	-1.597200000000E-01	1.493500000000E-01
	O44	O	-1.597200000000E-01	4.500600000000E-01	-1.493500000000E-01
	O45	O	-4.500600000000E-01	1.597200000000E-01	-1.493500000000E-01
	O46	O	1.597200000000E-01	-4.500600000000E-01	1.493500000000E-01
	O47	O	3.251500000000E-01	-3.251500000000E-01	7.319000000000E-02
	O48	O	-3.251500000000E-01	3.251500000000E-01	-7.319000000000E-02
	O49	O	3.750700000000E-01	-1.352500000000E-01	2.521700000000E-01
	O50	O	-1.352500000000E-01	3.750700000000E-01	-2.521700000000E-01
	O51	O	-3.750700000000E-01	1.352500000000E-01	-2.521700000000E-01
	O52	O	1.352500000000E-01	-3.750700000000E-01	2.521700000000E-01
	O53	O	6.441000000000E-02	-6.441000000000E-02	1.911900000000E-01
	O54	O	-6.441000000000E-02	6.441000000000E-02	-1.911900000000E-01
	O55	O	2.303300000000E-01	1.115300000000E-01	2.503300000000E-01
	O56	O	1.115300000000E-01	2.303300000000E-01	-2.503300000000E-01
	O57	O	-2.303300000000E-01	-1.115300000000E-01	-2.503300000000E-01
	O58	O	-1.115300000000E-01	-2.303300000000E-01	2.503300000000E-01
	O59	O	-3.416000000000E-01	-2.857200000000E-01	2.924800000000E-01
	O60	O	-2.857200000000E-01	-3.416000000000E-01	-2.924800000000E-01
	O61	O	3.416000000000E-01	2.857200000000E-01	-2.924800000000E-01
	O62	O	2.857200000000E-01	3.416000000000E-01	2.924800000000E-01
	O63	O	4.098500000000E-01	-4.098500000000E-01	2.484200000000E-01
	O64	O	-4.098500000000E-01	4.098500000000E-01	-2.484200000000E-01
	O65	O	3.092100000000E-01	5.685000000000E-02	3.917700000000E-01
	O66	O	5.685000000000E-02	3.092100000000E-01	-3.917700000000E-01
	O67	O	-3.092100000000E-01	-5.685000000000E-02	-3.917700000000E-01
	O68	O	-5.685000000000E-02	-3.092100000000E-01	3.917700000000E-01
	O69	O	-4.798000000000E-01	1.134000000000E-01	3.364700000000E-01
	O70	O	1.134000000000E-01	-4.798000000000E-01	-3.364700000000E-01
	O71	O	4.798000000000E-01	-1.134000000000E-01	-3.364700000000E-01
	O72	O	-1.134000000000E-01	4.798000000000E-01	3.364700000000E-01
	O73	O	-2.104600000000E-01	2.104600000000E-01	3.708800000000E-01
	O74	O	2.104600000000E-01	-2.104600000000E-01	-3.708800000000E-01
	O75	O	-2.911800000000E-01	3.940000000000E-02	4.784000000000E-01
	O76	O	3.940000000000E-02	-2.911800000000E-01	-4.784000000000E-01
	O77	O	2.911800000000E-01	-3.940000000000E-02	-4.784000000000E-01
	O78	O	-3.940000000000E-02	2.911800000000E-01	4.784000000000E-01
	O79	O	-2.109200000000E-01	-9.050000000000E-02	4.041200000000E-01
	O80	O	-9.050000000000E-02	-2.109200000000E-01	-4.041200000000E-01
	O81	O	2.109200000000E-01	9.050000000000E-02	-4.041200000000E-01
	O82	O	9.050000000000E-02	2.109200000000E-01	4.041200000000E-01
	O83	O	7.135000000000E-02	-7.135000000000E-02	4.076900000000E-01
	O84	O	-7.135000000000E-02	7.135000000000E-02	-4.076900000000E-01
