data SZR
_chemical_name_common		'SZR'
_cell_length_a		11.86871624
_cell_length_b		23.73743249
_cell_length_c		7.51400000
_cell_angle_alpha		90.000000
_cell_angle_beta		90.000000
_cell_angle_gamma		105.300494
_space group_name_H-M_alt		'P 1'
_space_group_IT_number		1

loop_
	_atom_site_label
	_atom_site_type_symbol
	_atom_site_fract_x
	_atom_site_fract_y
	_atom_site_fract_z
	O1	O	2.145000000000E-01	1.072500000000E-01	2.464000000000E-01
	O2	O	-2.145000000000E-01	-1.072500000000E-01	2.464000000000E-01
	O3	O	-2.145000000000E-01	-1.072500000000E-01	-2.464000000000E-01
	O4	O	2.145000000000E-01	1.072500000000E-01	-2.464000000000E-01
	O5	O	1.941000000000E-01	-5.850000000000E-03	2.474000000000E-01
	O6	O	-1.941000000000E-01	5.850000000000E-03	2.474000000000E-01
	O7	O	1.170000000000E-02	-9.705000000000E-02	-2.474000000000E-01
	O8	O	-1.170000000000E-02	9.705000000000E-02	-2.474000000000E-01
	O9	O	-1.941000000000E-01	5.850000000000E-03	-2.474000000000E-01
	O10	O	1.941000000000E-01	-5.850000000000E-03	-2.474000000000E-01
	O11	O	-1.170000000000E-02	9.705000000000E-02	2.474000000000E-01
	O12	O	1.170000000000E-02	-9.705000000000E-02	2.474000000000E-01
	O13	O	2.201000000000E-01	-1.100500000000E-01	1.751000000000E-01
	O14	O	-2.201000000000E-01	1.100500000000E-01	1.751000000000E-01
	O15	O	2.201000000000E-01	-1.100500000000E-01	-1.751000000000E-01
	O16	O	-2.201000000000E-01	1.100500000000E-01	-1.751000000000E-01
	O17	O	-5.000000000000E-01	5.796314902141E-17	0.000000000000E+00
	O18	O	8.328941333973E-17	2.500000000000E-01	0.000000000000E+00
	O19	O	4.097000000000E-01	-1.137500000000E-01	0.000000000000E+00
	O20	O	-4.097000000000E-01	1.137500000000E-01	0.000000000000E+00
	O21	O	2.275000000000E-01	-2.048500000000E-01	0.000000000000E+00
	O22	O	-2.275000000000E-01	2.048500000000E-01	0.000000000000E+00
	O23	O	3.965000000000E-01	6.805000000000E-02	1.751000000000E-01
	O24	O	-3.965000000000E-01	-6.805000000000E-02	1.751000000000E-01
	O25	O	-1.361000000000E-01	-1.982500000000E-01	-1.751000000000E-01
	O26	O	1.361000000000E-01	1.982500000000E-01	-1.751000000000E-01
	O27	O	-3.965000000000E-01	-6.805000000000E-02	-1.751000000000E-01
	O28	O	3.965000000000E-01	6.805000000000E-02	-1.751000000000E-01
	O29	O	1.361000000000E-01	1.982500000000E-01	1.751000000000E-01
	O30	O	-1.361000000000E-01	-1.982500000000E-01	1.751000000000E-01
	O31	O	1.699000000000E-01	-8.495000000000E-02	-5.000000000000E-01
	O32	O	-1.699000000000E-01	8.495000000000E-02	-5.000000000000E-01
	O33	O	3.138000000000E-01	6.070000000000E-02	-5.000000000000E-01
	O34	O	-3.138000000000E-01	-6.070000000000E-02	-5.000000000000E-01
	O35	O	-1.214000000000E-01	-1.569000000000E-01	-5.000000000000E-01
	O36	O	1.214000000000E-01	1.569000000000E-01	-5.000000000000E-01
	Si37	Si	2.793000000000E-01	5.745000000000E-02	2.925000000000E-01
	Si38	Si	-2.793000000000E-01	-5.745000000000E-02	2.925000000000E-01
	Si39	Si	-1.149000000000E-01	-1.396500000000E-01	-2.925000000000E-01
	Si40	Si	1.149000000000E-01	1.396500000000E-01	-2.925000000000E-01
	Si41	Si	-2.793000000000E-01	-5.745000000000E-02	-2.925000000000E-01
	Si42	Si	2.793000000000E-01	5.745000000000E-02	-2.925000000000E-01
	Si43	Si	1.149000000000E-01	1.396500000000E-01	2.925000000000E-01
	Si44	Si	-1.149000000000E-01	-1.396500000000E-01	2.925000000000E-01
	Si45	Si	4.707000000000E-01	6.235000000000E-02	0.000000000000E+00
	Si46	Si	-4.707000000000E-01	-6.235000000000E-02	0.000000000000E+00
	Si47	Si	-1.247000000000E-01	-2.353500000000E-01	0.000000000000E+00
	Si48	Si	1.247000000000E-01	2.353500000000E-01	0.000000000000E+00
	Si49	Si	1.488000000000E-01	-7.440000000000E-02	2.925000000000E-01
	Si50	Si	-1.488000000000E-01	7.440000000000E-02	2.925000000000E-01
	Si51	Si	1.488000000000E-01	-7.440000000000E-02	-2.925000000000E-01
	Si52	Si	-1.488000000000E-01	7.440000000000E-02	-2.925000000000E-01
	Si53	Si	2.692000000000E-01	-1.346000000000E-01	0.000000000000E+00
	Si54	Si	-2.692000000000E-01	1.346000000000E-01	0.000000000000E+00
	O55	O	-2.201000000000E-01	-3.899500000000E-01	1.751000000000E-01
	O56	O	3.965000000000E-01	-4.319500000000E-01	-1.751000000000E-01
	O57	O	2.145000000000E-01	-3.927500000000E-01	-2.464000000000E-01
	O58	O	1.361000000000E-01	-3.017500000000E-01	1.751000000000E-01
	O59	O	2.201000000000E-01	3.899500000000E-01	-1.751000000000E-01
	O60	O	-1.361000000000E-01	3.017500000000E-01	1.751000000000E-01
	O61	O	-1.170000000000E-02	-4.029500000000E-01	-2.474000000000E-01
	O62	O	1.699000000000E-01	4.150500000000E-01	-5.000000000000E-01
	O63	O	-2.201000000000E-01	-3.899500000000E-01	-1.751000000000E-01
	O64	O	-1.699000000000E-01	-4.150500000000E-01	-5.000000000000E-01
	O65	O	2.145000000000E-01	-3.927500000000E-01	2.464000000000E-01
	O66	O	3.138000000000E-01	-4.393000000000E-01	-5.000000000000E-01
	O67	O	-5.000000000000E-01	-5.000000000000E-01	0.000000000000E+00
	O68	O	-3.138000000000E-01	4.393000000000E-01	-5.000000000000E-01
	O69	O	-1.941000000000E-01	-4.941500000000E-01	-2.474000000000E-01
	O70	O	-1.214000000000E-01	3.431000000000E-01	-5.000000000000E-01
	O71	O	1.582804279352E-16	-2.500000000000E-01	0.000000000000E+00
	O72	O	1.214000000000E-01	-3.431000000000E-01	-5.000000000000E-01
	O73	O	1.941000000000E-01	4.941500000000E-01	2.474000000000E-01
	Si74	Si	2.793000000000E-01	-4.425500000000E-01	2.925000000000E-01
	O75	O	4.097000000000E-01	3.862500000000E-01	0.000000000000E+00
	Si76	Si	-2.793000000000E-01	4.425500000000E-01	2.925000000000E-01
	O77	O	1.941000000000E-01	4.941500000000E-01	-2.474000000000E-01
	Si78	Si	-1.149000000000E-01	3.603500000000E-01	-2.925000000000E-01
	O79	O	-4.097000000000E-01	-3.862500000000E-01	0.000000000000E+00
	Si80	Si	1.149000000000E-01	-3.603500000000E-01	-2.925000000000E-01
	O81	O	-2.145000000000E-01	3.927500000000E-01	-2.464000000000E-01
	Si82	Si	-2.793000000000E-01	4.425500000000E-01	-2.925000000000E-01
	O83	O	2.275000000000E-01	2.951500000000E-01	0.000000000000E+00
	Si84	Si	2.793000000000E-01	-4.425500000000E-01	-2.925000000000E-01
	O85	O	-1.170000000000E-02	-4.029500000000E-01	2.474000000000E-01
	Si86	Si	1.149000000000E-01	-3.603500000000E-01	2.925000000000E-01
	O87	O	-2.275000000000E-01	-2.951500000000E-01	0.000000000000E+00
	Si88	Si	-1.149000000000E-01	3.603500000000E-01	2.925000000000E-01
	O89	O	-1.941000000000E-01	-4.941500000000E-01	2.474000000000E-01
	Si90	Si	4.707000000000E-01	-4.376500000000E-01	0.000000000000E+00
	O91	O	3.965000000000E-01	-4.319500000000E-01	1.751000000000E-01
	Si92	Si	-4.707000000000E-01	4.376500000000E-01	0.000000000000E+00
	O93	O	1.170000000000E-02	4.029500000000E-01	2.474000000000E-01
	Si94	Si	-1.247000000000E-01	2.646500000000E-01	0.000000000000E+00
	O95	O	-3.965000000000E-01	4.319500000000E-01	1.751000000000E-01
	Si96	Si	1.247000000000E-01	-2.646500000000E-01	0.000000000000E+00
	O97	O	-2.145000000000E-01	3.927500000000E-01	2.464000000000E-01
	Si98	Si	1.488000000000E-01	4.256000000000E-01	2.925000000000E-01
	O99	O	-1.361000000000E-01	3.017500000000E-01	-1.751000000000E-01
	Si100	Si	-1.488000000000E-01	-4.256000000000E-01	2.925000000000E-01
	O101	O	2.201000000000E-01	3.899500000000E-01	1.751000000000E-01
	Si102	Si	1.488000000000E-01	4.256000000000E-01	-2.925000000000E-01
	O103	O	1.361000000000E-01	-3.017500000000E-01	-1.751000000000E-01
	Si104	Si	-1.488000000000E-01	-4.256000000000E-01	-2.925000000000E-01
	O105	O	1.170000000000E-02	4.029500000000E-01	-2.474000000000E-01
	Si106	Si	2.692000000000E-01	3.654000000000E-01	0.000000000000E+00
	O107	O	-3.965000000000E-01	4.319500000000E-01	-1.751000000000E-01
	Si108	Si	-2.692000000000E-01	-3.654000000000E-01	0.000000000000E+00
