data UEI
_chemical_name_common		'UEI'
_cell_length_a		8.88344880
_cell_length_b		12.31780266
_cell_length_c		21.59010887
_cell_angle_alpha		44.603783
_cell_angle_beta		76.823279
_cell_angle_gamma		58.572938
_space group_name_H-M_alt		'P 1'
_space_group_IT_number		1

loop_
	_atom_site_label
	_atom_site_type_symbol
	_atom_site_fract_x
	_atom_site_fract_y
	_atom_site_fract_z
	O1	O	1.040000000000E-01	1.040000000000E-01	-3.020000000000E-01
	O2	O	-3.960000000000E-01	-3.960000000000E-01	-5.200000000000E-02
	O3	O	2.906000000000E-01	1.862000000000E-01	7.110000000000E-02
	O4	O	1.862000000000E-01	2.906000000000E-01	-3.095000000000E-01
	O5	O	-3.810000000000E-01	-1.422000000000E-01	-9.310000000000E-02
	O6	O	-1.422000000000E-01	-3.810000000000E-01	-1.453000000000E-01
	O7	O	8.170000000000E-02	-2.727000000000E-01	2.524500000000E-01
	O8	O	-2.727000000000E-01	8.170000000000E-02	-1.569500000000E-01
	O9	O	3.139000000000E-01	4.951000000000E-01	1.363500000000E-01
	O10	O	4.951000000000E-01	3.139000000000E-01	-4.085000000000E-02
	O11	O	-2.706000000000E-01	4.210000000000E-01	-9.450000000000E-02
	O12	O	4.210000000000E-01	-2.706000000000E-01	1.930000000000E-02
	O13	O	-3.860000000000E-02	1.890000000000E-01	-2.105000000000E-01
	O14	O	1.890000000000E-01	-3.860000000000E-02	1.353000000000E-01
	O15	O	-1.249000000000E-01	-1.249000000000E-01	-1.875500000000E-01
	O16	O	3.751000000000E-01	3.751000000000E-01	6.245000000000E-02
	O17	O	1.467000000000E-01	-4.607000000000E-01	-7.335000000000E-02
	O18	O	-4.607000000000E-01	1.467000000000E-01	2.303500000000E-01
	O19	O	2.981000000000E-01	-3.069000000000E-01	1.534500000000E-01
	O20	O	-3.069000000000E-01	2.981000000000E-01	-1.490500000000E-01
	O21	O	-5.990000000000E-02	3.135000000000E-01	2.995000000000E-02
	O22	O	3.135000000000E-01	-5.990000000000E-02	-1.567500000000E-01
	O23	O	4.270000000000E-01	-3.804000000000E-01	-2.135000000000E-01
	O24	O	-3.804000000000E-01	4.270000000000E-01	-3.098000000000E-01
	Si25	Si	-2.158000000000E-01	4.878000000000E-01	-6.460000000000E-02
	Si26	Si	4.878000000000E-01	-2.158000000000E-01	-7.140000000000E-02
	Si27	Si	1.428000000000E-01	1.292000000000E-01	-2.439000000000E-01
	Si28	Si	1.292000000000E-01	1.428000000000E-01	1.079000000000E-01
	Si29	Si	3.300000000000E-01	3.502000000000E-01	5.600000000000E-03
	Si30	Si	3.502000000000E-01	3.300000000000E-01	1.543000000000E-01
	Si31	Si	-3.086000000000E-01	-1.120000000000E-02	-1.751000000000E-01
	Si32	Si	-1.120000000000E-02	-3.086000000000E-01	3.350000000000E-01
	Si33	Si	2.505000000000E-01	-2.505000000000E-01	2.074500000000E-01
	Si34	Si	-2.505000000000E-01	2.505000000000E-01	-2.074500000000E-01
	Si35	Si	4.149000000000E-01	-4.149000000000E-01	1.252500000000E-01
	Si36	Si	-4.149000000000E-01	4.149000000000E-01	-1.252500000000E-01
	O37	O	-3.810000000000E-01	-1.422000000000E-01	4.069000000000E-01
	O38	O	2.981000000000E-01	-3.069000000000E-01	-3.465500000000E-01
	O39	O	4.951000000000E-01	3.139000000000E-01	4.591500000000E-01
	O40	O	-3.069000000000E-01	2.981000000000E-01	3.509500000000E-01
	O41	O	2.906000000000E-01	1.862000000000E-01	-4.289000000000E-01
	O42	O	-5.990000000000E-02	3.135000000000E-01	-4.700500000000E-01
	O43	O	-2.706000000000E-01	4.210000000000E-01	4.055000000000E-01
	O44	O	3.135000000000E-01	-5.990000000000E-02	3.432500000000E-01
	O45	O	-1.422000000000E-01	-3.810000000000E-01	3.547000000000E-01
	O46	O	4.270000000000E-01	-3.804000000000E-01	2.865000000000E-01
	O47	O	4.210000000000E-01	-2.706000000000E-01	-4.807000000000E-01
	O48	O	-3.804000000000E-01	4.270000000000E-01	1.902000000000E-01
	O49	O	-3.960000000000E-01	-3.960000000000E-01	4.480000000000E-01
	Si50	Si	-2.158000000000E-01	4.878000000000E-01	4.354000000000E-01
	O51	O	-3.860000000000E-02	1.890000000000E-01	2.895000000000E-01
	Si52	Si	4.878000000000E-01	-2.158000000000E-01	4.286000000000E-01
	O53	O	8.170000000000E-02	-2.727000000000E-01	-2.475500000000E-01
	Si54	Si	1.428000000000E-01	1.292000000000E-01	2.561000000000E-01
	O55	O	1.890000000000E-01	-3.860000000000E-02	-3.647000000000E-01
	Si56	Si	1.292000000000E-01	1.428000000000E-01	-3.921000000000E-01
	O57	O	1.862000000000E-01	2.906000000000E-01	1.905000000000E-01
	Si58	Si	3.300000000000E-01	3.502000000000E-01	-4.944000000000E-01
	O59	O	-1.249000000000E-01	-1.249000000000E-01	3.124500000000E-01
	Si60	Si	3.502000000000E-01	3.300000000000E-01	-3.457000000000E-01
	O61	O	-2.727000000000E-01	8.170000000000E-02	3.430500000000E-01
	Si62	Si	-3.086000000000E-01	-1.120000000000E-02	3.249000000000E-01
	O63	O	3.751000000000E-01	3.751000000000E-01	-4.375500000000E-01
	Si64	Si	-1.120000000000E-02	-3.086000000000E-01	-1.650000000000E-01
	O65	O	1.040000000000E-01	1.040000000000E-01	1.980000000000E-01
	Si66	Si	2.505000000000E-01	-2.505000000000E-01	-2.925500000000E-01
	O67	O	1.467000000000E-01	-4.607000000000E-01	4.266500000000E-01
	Si68	Si	-2.505000000000E-01	2.505000000000E-01	2.925500000000E-01
	O69	O	3.139000000000E-01	4.951000000000E-01	-3.636500000000E-01
	Si70	Si	4.149000000000E-01	-4.149000000000E-01	-3.747500000000E-01
	O71	O	-4.607000000000E-01	1.467000000000E-01	-2.696500000000E-01
	Si72	Si	-4.149000000000E-01	4.149000000000E-01	3.747500000000E-01
