data UFI
_chemical_name_common		'UFI'
_cell_length_a		16.68870686
_cell_length_b		16.68870686
_cell_length_c		16.68870686
_cell_angle_alpha		137.397740
_cell_angle_beta		137.397740
_cell_angle_gamma		61.826652
_space group_name_H-M_alt		'P 1'
_space_group_IT_number		1

loop_
	_atom_site_label
	_atom_site_type_symbol
	_atom_site_fract_x
	_atom_site_fract_y
	_atom_site_fract_z
	O1	O	8.260000000000E-02	3.773000000000E-01	2.947000000000E-01
	O2	O	8.260000000000E-02	-2.121000000000E-01	-2.947000000000E-01
	O3	O	-8.260000000000E-02	2.121000000000E-01	2.947000000000E-01
	O4	O	-8.260000000000E-02	-3.773000000000E-01	-2.947000000000E-01
	O5	O	-3.773000000000E-01	-8.260000000000E-02	-2.947000000000E-01
	O6	O	2.121000000000E-01	-8.260000000000E-02	2.947000000000E-01
	O7	O	-2.121000000000E-01	8.260000000000E-02	-2.947000000000E-01
	O8	O	3.773000000000E-01	8.260000000000E-02	2.947000000000E-01
	O9	O	1.278301926017E-17	2.039000000000E-01	2.039000000000E-01
	O10	O	2.598017881070E-17	-2.039000000000E-01	-2.039000000000E-01
	O11	O	-2.039000000000E-01	-9.814458938565E-18	-2.039000000000E-01
	O12	O	2.039000000000E-01	9.814458938565E-18	2.039000000000E-01
	O13	O	1.766000000000E-01	1.766000000000E-01	2.168000000000E-01
	O14	O	-4.020000000000E-02	-4.020000000000E-02	-2.168000000000E-01
	O15	O	-1.766000000000E-01	4.020000000000E-02	-1.705580221206E-18
	O16	O	4.020000000000E-02	-1.766000000000E-01	1.705580221206E-18
	O17	O	-1.766000000000E-01	-1.766000000000E-01	-2.168000000000E-01
	O18	O	4.020000000000E-02	4.020000000000E-02	2.168000000000E-01
	O19	O	-4.020000000000E-02	1.766000000000E-01	-1.705580221206E-18
	O20	O	1.766000000000E-01	-4.020000000000E-02	1.705580221206E-18
	O21	O	3.778000000000E-01	-3.778000000000E-01	-5.000000000000E-01
	O22	O	1.222000000000E-01	-1.222000000000E-01	-5.000000000000E-01
	O23	O	-3.778000000000E-01	1.222000000000E-01	2.444000000000E-01
	O24	O	-1.222000000000E-01	3.778000000000E-01	-2.444000000000E-01
	O25	O	-3.778000000000E-01	3.778000000000E-01	-5.000000000000E-01
	O26	O	-1.222000000000E-01	1.222000000000E-01	-5.000000000000E-01
	O27	O	3.778000000000E-01	-1.222000000000E-01	-2.444000000000E-01
	O28	O	1.222000000000E-01	-3.778000000000E-01	2.444000000000E-01
	O29	O	2.667000000000E-01	-4.984000000000E-01	4.509000000000E-01
	O30	O	5.070000000000E-02	-1.842000000000E-01	-4.509000000000E-01
	O31	O	-2.667000000000E-01	1.842000000000E-01	2.349000000000E-01
	O32	O	-5.070000000000E-02	4.984000000000E-01	-2.349000000000E-01
	O33	O	4.984000000000E-01	-2.667000000000E-01	-4.509000000000E-01
	O34	O	1.842000000000E-01	-5.070000000000E-02	4.509000000000E-01
	O35	O	-1.842000000000E-01	2.667000000000E-01	-2.349000000000E-01
	O36	O	-4.984000000000E-01	5.070000000000E-02	2.349000000000E-01
	O37	O	-2.667000000000E-01	4.984000000000E-01	-4.509000000000E-01
	O38	O	-5.070000000000E-02	1.842000000000E-01	4.509000000000E-01
	O39	O	2.667000000000E-01	-1.842000000000E-01	-2.349000000000E-01
	O40	O	5.070000000000E-02	-4.984000000000E-01	2.349000000000E-01
	O41	O	-4.984000000000E-01	2.667000000000E-01	4.509000000000E-01
	O42	O	-1.842000000000E-01	5.070000000000E-02	-4.509000000000E-01
	O43	O	1.842000000000E-01	-2.667000000000E-01	2.349000000000E-01
	O44	O	4.984000000000E-01	-5.070000000000E-02	-2.349000000000E-01
	O45	O	4.255000000000E-01	-3.084000000000E-01	-2.661000000000E-01
	O46	O	-4.230000000000E-02	-3.084000000000E-01	2.661000000000E-01
	O47	O	-4.255000000000E-01	3.084000000000E-01	2.661000000000E-01
	O48	O	4.230000000000E-02	3.084000000000E-01	-2.661000000000E-01
	O49	O	3.084000000000E-01	-4.255000000000E-01	2.661000000000E-01
	O50	O	3.084000000000E-01	4.230000000000E-02	-2.661000000000E-01
	O51	O	-3.084000000000E-01	4.255000000000E-01	-2.661000000000E-01
	O52	O	-3.084000000000E-01	-4.230000000000E-02	2.661000000000E-01
	O53	O	4.960000000000E-01	4.960000000000E-01	-4.108000000000E-01
	O54	O	-9.320000000000E-02	-9.320000000000E-02	4.108000000000E-01
	O55	O	-4.960000000000E-01	9.320000000000E-02	-6.286646239840E-19
	O56	O	9.320000000000E-02	-4.960000000000E-01	1.737661778438E-17
	O57	O	-4.960000000000E-01	-4.960000000000E-01	4.108000000000E-01
	O58	O	9.320000000000E-02	9.320000000000E-02	-4.108000000000E-01
	O59	O	-9.320000000000E-02	4.960000000000E-01	-1.737661778438E-17
	O60	O	4.960000000000E-01	-9.320000000000E-02	6.286646239840E-19
	O61	O	1.138000000000E-01	-3.862000000000E-01	-5.000000000000E-01
	O62	O	-1.138000000000E-01	3.862000000000E-01	-5.000000000000E-01
	O63	O	3.862000000000E-01	-1.138000000000E-01	-5.000000000000E-01
	O64	O	-3.862000000000E-01	1.138000000000E-01	-5.000000000000E-01
	Si65	Si	5.520000000000E-02	2.340000000000E-01	1.788000000000E-01
	Si66	Si	5.520000000000E-02	-1.236000000000E-01	-1.788000000000E-01
	Si67	Si	-5.520000000000E-02	1.236000000000E-01	1.788000000000E-01
	Si68	Si	-5.520000000000E-02	-2.340000000000E-01	-1.788000000000E-01
	Si69	Si	-2.340000000000E-01	-5.520000000000E-02	-1.788000000000E-01
	Si70	Si	1.236000000000E-01	-5.520000000000E-02	1.788000000000E-01
	Si71	Si	-1.236000000000E-01	5.520000000000E-02	-1.788000000000E-01
	Si72	Si	2.340000000000E-01	5.520000000000E-02	1.788000000000E-01
	Si73	Si	3.908000000000E-01	-4.233000000000E-01	-4.335000000000E-01
	Si74	Si	1.020000000000E-02	-1.757000000000E-01	4.335000000000E-01
	Si75	Si	-3.908000000000E-01	1.757000000000E-01	1.859000000000E-01
	Si76	Si	-1.020000000000E-02	4.233000000000E-01	-1.859000000000E-01
	Si77	Si	4.233000000000E-01	-3.908000000000E-01	4.335000000000E-01
	Si78	Si	1.757000000000E-01	-1.020000000000E-02	-4.335000000000E-01
	Si79	Si	-1.757000000000E-01	3.908000000000E-01	-1.859000000000E-01
	Si80	Si	-4.233000000000E-01	1.020000000000E-02	1.859000000000E-01
	Si81	Si	-3.908000000000E-01	4.233000000000E-01	4.335000000000E-01
	Si82	Si	-1.020000000000E-02	1.757000000000E-01	-4.335000000000E-01
	Si83	Si	3.908000000000E-01	-1.757000000000E-01	-1.859000000000E-01
	Si84	Si	1.020000000000E-02	-4.233000000000E-01	1.859000000000E-01
	Si85	Si	-4.233000000000E-01	3.908000000000E-01	-4.335000000000E-01
	Si86	Si	-1.757000000000E-01	1.020000000000E-02	4.335000000000E-01
	Si87	Si	1.757000000000E-01	-3.908000000000E-01	1.859000000000E-01
	Si88	Si	4.233000000000E-01	-1.020000000000E-02	-1.859000000000E-01
	Si89	Si	1.284000000000E-01	-4.998000000000E-01	3.718000000000E-01
	Si90	Si	1.284000000000E-01	-2.434000000000E-01	-3.718000000000E-01
	Si91	Si	-1.284000000000E-01	2.434000000000E-01	3.718000000000E-01
	Si92	Si	-1.284000000000E-01	4.998000000000E-01	-3.718000000000E-01
	Si93	Si	4.998000000000E-01	-1.284000000000E-01	-3.718000000000E-01
	Si94	Si	2.434000000000E-01	-1.284000000000E-01	3.718000000000E-01
	Si95	Si	-2.434000000000E-01	1.284000000000E-01	-3.718000000000E-01
	Si96	Si	-4.998000000000E-01	1.284000000000E-01	3.718000000000E-01
