data UOZ
_chemical_name_common		'UOZ'
_cell_length_a		8.62100000
_cell_length_b		8.62100000
_cell_length_c		27.54400000
_cell_angle_alpha		90.000000
_cell_angle_beta		90.000000
_cell_angle_gamma		90.000000
_space group_name_H-M_alt		'P 1'
_space_group_IT_number		1

loop_
	_atom_site_label
	_atom_site_type_symbol
	_atom_site_fract_x
	_atom_site_fract_y
	_atom_site_fract_z
	O1	O	3.887000000000E-01	1.037000000000E-01	2.840000000000E-01
	O2	O	-3.887000000000E-01	-1.037000000000E-01	2.840000000000E-01
	O3	O	3.887000000000E-01	-1.037000000000E-01	-2.840000000000E-01
	O4	O	-3.887000000000E-01	1.037000000000E-01	-2.840000000000E-01
	O5	O	-1.037000000000E-01	-3.887000000000E-01	-2.840000000000E-01
	O6	O	1.037000000000E-01	3.887000000000E-01	-2.840000000000E-01
	O7	O	1.037000000000E-01	-3.887000000000E-01	2.840000000000E-01
	O8	O	-1.037000000000E-01	3.887000000000E-01	2.840000000000E-01
	O9	O	1.113000000000E-01	3.963000000000E-01	2.160000000000E-01
	O10	O	-1.113000000000E-01	-3.963000000000E-01	2.160000000000E-01
	O11	O	1.113000000000E-01	-3.963000000000E-01	-2.160000000000E-01
	O12	O	-1.113000000000E-01	3.963000000000E-01	-2.160000000000E-01
	O13	O	-3.963000000000E-01	-1.113000000000E-01	-2.160000000000E-01
	O14	O	3.963000000000E-01	1.113000000000E-01	-2.160000000000E-01
	O15	O	3.963000000000E-01	-1.113000000000E-01	2.160000000000E-01
	O16	O	-3.963000000000E-01	1.113000000000E-01	2.160000000000E-01
	O17	O	1.874000000000E-01	-1.071000000000E-01	3.096000000000E-01
	O18	O	-1.874000000000E-01	1.071000000000E-01	3.096000000000E-01
	O19	O	1.874000000000E-01	1.071000000000E-01	-3.096000000000E-01
	O20	O	-1.874000000000E-01	-1.071000000000E-01	-3.096000000000E-01
	O21	O	1.071000000000E-01	-1.874000000000E-01	-3.096000000000E-01
	O22	O	-1.071000000000E-01	1.874000000000E-01	-3.096000000000E-01
	O23	O	-1.071000000000E-01	-1.874000000000E-01	3.096000000000E-01
	O24	O	1.071000000000E-01	1.874000000000E-01	3.096000000000E-01
	O25	O	3.126000000000E-01	-3.929000000000E-01	1.904000000000E-01
	O26	O	-3.126000000000E-01	3.929000000000E-01	1.904000000000E-01
	O27	O	3.126000000000E-01	3.929000000000E-01	-1.904000000000E-01
	O28	O	-3.126000000000E-01	-3.929000000000E-01	-1.904000000000E-01
	O29	O	3.929000000000E-01	-3.126000000000E-01	-1.904000000000E-01
	O30	O	-3.929000000000E-01	3.126000000000E-01	-1.904000000000E-01
	O31	O	-3.929000000000E-01	-3.126000000000E-01	1.904000000000E-01
	O32	O	3.929000000000E-01	3.126000000000E-01	1.904000000000E-01
	O33	O	3.007000000000E-01	8.250000000000E-02	3.756000000000E-01
	O34	O	-3.007000000000E-01	-8.250000000000E-02	3.756000000000E-01
	O35	O	3.007000000000E-01	-8.250000000000E-02	-3.756000000000E-01
	O36	O	-3.007000000000E-01	8.250000000000E-02	-3.756000000000E-01
	O37	O	-8.250000000000E-02	-3.007000000000E-01	-3.756000000000E-01
	O38	O	8.250000000000E-02	3.007000000000E-01	-3.756000000000E-01
	O39	O	8.250000000000E-02	-3.007000000000E-01	3.756000000000E-01
	O40	O	-8.250000000000E-02	3.007000000000E-01	3.756000000000E-01
	O41	O	1.993000000000E-01	4.175000000000E-01	1.244000000000E-01
	O42	O	-1.993000000000E-01	-4.175000000000E-01	1.244000000000E-01
	O43	O	1.993000000000E-01	-4.175000000000E-01	-1.244000000000E-01
	O44	O	-1.993000000000E-01	4.175000000000E-01	-1.244000000000E-01
	O45	O	-4.175000000000E-01	-1.993000000000E-01	-1.244000000000E-01
	O46	O	4.175000000000E-01	1.993000000000E-01	-1.244000000000E-01
	O47	O	4.175000000000E-01	-1.993000000000E-01	1.244000000000E-01
	O48	O	-4.175000000000E-01	1.993000000000E-01	1.244000000000E-01
	O49	O	-3.909000000000E-01	1.065000000000E-01	-4.662000000000E-01
	O50	O	3.909000000000E-01	-1.065000000000E-01	-4.662000000000E-01
	O51	O	-3.909000000000E-01	-1.065000000000E-01	4.662000000000E-01
	O52	O	3.909000000000E-01	1.065000000000E-01	4.662000000000E-01
	O53	O	-1.065000000000E-01	3.909000000000E-01	4.662000000000E-01
	O54	O	1.065000000000E-01	-3.909000000000E-01	4.662000000000E-01
	O55	O	1.065000000000E-01	3.909000000000E-01	-4.662000000000E-01
	O56	O	-1.065000000000E-01	-3.909000000000E-01	-4.662000000000E-01
	O57	O	-1.091000000000E-01	3.935000000000E-01	-3.380000000000E-02
	O58	O	1.091000000000E-01	-3.935000000000E-01	-3.380000000000E-02
	O59	O	-1.091000000000E-01	-3.935000000000E-01	3.380000000000E-02
	O60	O	1.091000000000E-01	3.935000000000E-01	3.380000000000E-02
	O61	O	-3.935000000000E-01	1.091000000000E-01	3.380000000000E-02
	O62	O	3.935000000000E-01	-1.091000000000E-01	3.380000000000E-02
	O63	O	3.935000000000E-01	1.091000000000E-01	-3.380000000000E-02
	O64	O	-3.935000000000E-01	-1.091000000000E-01	-3.380000000000E-02
	O65	O	1.877000000000E-01	-1.064000000000E-01	4.416000000000E-01
	O66	O	-1.877000000000E-01	1.064000000000E-01	4.416000000000E-01
	O67	O	1.877000000000E-01	1.064000000000E-01	-4.416000000000E-01
	O68	O	-1.877000000000E-01	-1.064000000000E-01	-4.416000000000E-01
	O69	O	1.064000000000E-01	-1.877000000000E-01	-4.416000000000E-01
	O70	O	-1.064000000000E-01	1.877000000000E-01	-4.416000000000E-01
	O71	O	-1.064000000000E-01	-1.877000000000E-01	4.416000000000E-01
	O72	O	1.064000000000E-01	1.877000000000E-01	4.416000000000E-01
	O73	O	3.123000000000E-01	-3.936000000000E-01	5.840000000000E-02
	O74	O	-3.123000000000E-01	3.936000000000E-01	5.840000000000E-02
	O75	O	3.123000000000E-01	3.936000000000E-01	-5.840000000000E-02
	O76	O	-3.123000000000E-01	-3.936000000000E-01	-5.840000000000E-02
	O77	O	3.936000000000E-01	-3.123000000000E-01	-5.840000000000E-02
	O78	O	-3.936000000000E-01	3.123000000000E-01	-5.840000000000E-02
	O79	O	-3.936000000000E-01	-3.123000000000E-01	5.840000000000E-02
	O80	O	3.936000000000E-01	3.123000000000E-01	5.840000000000E-02
	Si81	Si	2.459000000000E-01	6.700000000000E-02	3.199000000000E-01
	Si82	Si	-2.459000000000E-01	-6.700000000000E-02	3.199000000000E-01
	Si83	Si	2.459000000000E-01	-6.700000000000E-02	-3.199000000000E-01
	Si84	Si	-2.459000000000E-01	6.700000000000E-02	-3.199000000000E-01
	Si85	Si	-6.700000000000E-02	-2.459000000000E-01	-3.199000000000E-01
	Si86	Si	6.700000000000E-02	2.459000000000E-01	-3.199000000000E-01
	Si87	Si	6.700000000000E-02	-2.459000000000E-01	3.199000000000E-01
	Si88	Si	-6.700000000000E-02	2.459000000000E-01	3.199000000000E-01
	Si89	Si	2.541000000000E-01	4.330000000000E-01	1.801000000000E-01
	Si90	Si	-2.541000000000E-01	-4.330000000000E-01	1.801000000000E-01
	Si91	Si	2.541000000000E-01	-4.330000000000E-01	-1.801000000000E-01
	Si92	Si	-2.541000000000E-01	4.330000000000E-01	-1.801000000000E-01
	Si93	Si	-4.330000000000E-01	-2.541000000000E-01	-1.801000000000E-01
	Si94	Si	4.330000000000E-01	2.541000000000E-01	-1.801000000000E-01
	Si95	Si	4.330000000000E-01	-2.541000000000E-01	1.801000000000E-01
	Si96	Si	-4.330000000000E-01	2.541000000000E-01	1.801000000000E-01
	Si97	Si	6.800000000000E-02	-2.459000000000E-01	4.312000000000E-01
	Si98	Si	-6.800000000000E-02	2.459000000000E-01	4.312000000000E-01
	Si99	Si	6.800000000000E-02	2.459000000000E-01	-4.312000000000E-01
	Si100	Si	-6.800000000000E-02	-2.459000000000E-01	-4.312000000000E-01
	Si101	Si	2.459000000000E-01	-6.800000000000E-02	-4.312000000000E-01
	Si102	Si	-2.459000000000E-01	6.800000000000E-02	-4.312000000000E-01
	Si103	Si	-2.459000000000E-01	-6.800000000000E-02	4.312000000000E-01
	Si104	Si	2.459000000000E-01	6.800000000000E-02	4.312000000000E-01
	Si105	Si	4.320000000000E-01	-2.541000000000E-01	6.880000000000E-02
	Si106	Si	-4.320000000000E-01	2.541000000000E-01	6.880000000000E-02
	Si107	Si	4.320000000000E-01	2.541000000000E-01	-6.880000000000E-02
	Si108	Si	-4.320000000000E-01	-2.541000000000E-01	-6.880000000000E-02
	Si109	Si	2.541000000000E-01	-4.320000000000E-01	-6.880000000000E-02
	Si110	Si	-2.541000000000E-01	4.320000000000E-01	-6.880000000000E-02
	Si111	Si	-2.541000000000E-01	-4.320000000000E-01	6.880000000000E-02
	Si112	Si	2.541000000000E-01	4.320000000000E-01	6.880000000000E-02
	Si113	Si	-5.000000000000E-01	0.000000000000E+00	2.500000000000E-01
	Si114	Si	-5.000000000000E-01	0.000000000000E+00	-2.500000000000E-01
	Si115	Si	0.000000000000E+00	-5.000000000000E-01	-2.500000000000E-01
	Si116	Si	0.000000000000E+00	-5.000000000000E-01	2.500000000000E-01
	Si117	Si	-5.000000000000E-01	0.000000000000E+00	-5.000000000000E-01
	Si118	Si	0.000000000000E+00	-5.000000000000E-01	-5.000000000000E-01
	Si119	Si	0.000000000000E+00	-5.000000000000E-01	-6.449160758787E-17
	Si120	Si	-5.000000000000E-01	0.000000000000E+00	9.673741138180E-17
