data USI
_chemical_name_common		'USI'
_cell_length_a		12.39212454
_cell_length_b		24.78424907
_cell_length_c		9.67200000
_cell_angle_alpha		74.424785
_cell_angle_beta		105.575215
_cell_angle_gamma		116.884650
_space group_name_H-M_alt		'P 1'
_space_group_IT_number		1

loop_
	_atom_site_label
	_atom_site_type_symbol
	_atom_site_fract_x
	_atom_site_fract_y
	_atom_site_fract_z
	O1	O	-2.043000000000E-01	-2.622500000000E-01	1.896000000000E-01
	O2	O	4.755000000000E-01	-1.021500000000E-01	-1.896000000000E-01
	O3	O	2.043000000000E-01	2.622500000000E-01	-1.896000000000E-01
	O4	O	-4.755000000000E-01	1.021500000000E-01	1.896000000000E-01
	O5	O	-2.625000000000E-01	1.312500000000E-01	1.195000000000E-01
	O6	O	2.625000000000E-01	-1.312500000000E-01	-1.195000000000E-01
	O7	O	-3.100000000000E-02	2.055000000000E-01	1.810000000000E-01
	O8	O	4.110000000000E-01	-1.550000000000E-02	-1.810000000000E-01
	O9	O	3.100000000000E-02	-2.055000000000E-01	-1.810000000000E-01
	O10	O	-4.110000000000E-01	1.550000000000E-02	1.810000000000E-01
	O11	O	-1.681000000000E-01	-2.665500000000E-01	-6.220000000000E-02
	O12	O	4.669000000000E-01	-8.405000000000E-02	6.220000000000E-02
	O13	O	1.681000000000E-01	2.665500000000E-01	6.220000000000E-02
	O14	O	-4.669000000000E-01	8.405000000000E-02	-6.220000000000E-02
	O15	O	4.090000000000E-02	1.803500000000E-01	-3.493000000000E-01
	O16	O	3.607000000000E-01	2.045000000000E-02	3.493000000000E-01
	O17	O	-4.090000000000E-02	-1.803500000000E-01	3.493000000000E-01
	O18	O	-3.607000000000E-01	-2.045000000000E-02	-3.493000000000E-01
	O19	O	-1.293000000000E-01	1.882500000000E-01	-2.523000000000E-01
	O20	O	3.765000000000E-01	-6.465000000000E-02	2.523000000000E-01
	O21	O	1.293000000000E-01	-1.882500000000E-01	2.523000000000E-01
	O22	O	-3.765000000000E-01	6.465000000000E-02	-2.523000000000E-01
	O23	O	-1.872000000000E-01	9.360000000000E-02	-3.723000000000E-01
	O24	O	1.872000000000E-01	-9.360000000000E-02	3.723000000000E-01
	O25	O	-1.375000000000E-01	2.028500000000E-01	4.662000000000E-01
	O26	O	4.057000000000E-01	-6.875000000000E-02	-4.662000000000E-01
	O27	O	1.375000000000E-01	-2.028500000000E-01	-4.662000000000E-01
	O28	O	-4.057000000000E-01	6.875000000000E-02	4.662000000000E-01
	O29	O	4.667000000000E-01	1.355500000000E-01	3.888000000000E-01
	O30	O	2.711000000000E-01	2.333500000000E-01	-3.888000000000E-01
	O31	O	-4.667000000000E-01	-1.355500000000E-01	-3.888000000000E-01
	O32	O	-2.711000000000E-01	-2.333500000000E-01	3.888000000000E-01
	O33	O	-1.860000000000E-01	-2.167000000000E-01	-3.392000000000E-01
	O34	O	-4.334000000000E-01	-9.300000000000E-02	3.392000000000E-01
	O35	O	1.860000000000E-01	2.167000000000E-01	3.392000000000E-01
	O36	O	4.334000000000E-01	9.300000000000E-02	-3.392000000000E-01
	O37	O	-3.458000000000E-01	-1.729000000000E-01	5.000000000000E-01
	O38	O	3.458000000000E-01	1.729000000000E-01	5.000000000000E-01
	O39	O	-4.157000000000E-01	-2.921500000000E-01	-4.148000000000E-01
	O40	O	4.157000000000E-01	-2.078500000000E-01	4.148000000000E-01
	Si41	Si	-1.663000000000E-01	-2.978500000000E-01	1.068000000000E-01
	Si42	Si	4.043000000000E-01	-8.315000000000E-02	-1.068000000000E-01
	Si43	Si	1.663000000000E-01	2.978500000000E-01	-1.068000000000E-01
	Si44	Si	-4.043000000000E-01	8.315000000000E-02	1.068000000000E-01
	Si45	Si	-1.028000000000E-01	1.659000000000E-01	-3.767000000000E-01
	Si46	Si	3.318000000000E-01	-5.140000000000E-02	3.767000000000E-01
	Si47	Si	1.028000000000E-01	-1.659000000000E-01	3.767000000000E-01
	Si48	Si	-3.318000000000E-01	5.140000000000E-02	-3.767000000000E-01
	Si49	Si	4.860000000000E-01	8.200000000000E-02	3.481000000000E-01
	Si50	Si	1.640000000000E-01	2.430000000000E-01	-3.481000000000E-01
	Si51	Si	-4.860000000000E-01	-8.200000000000E-02	-3.481000000000E-01
	Si52	Si	-1.640000000000E-01	-2.430000000000E-01	3.481000000000E-01
	Si53	Si	-3.049000000000E-01	-2.288500000000E-01	-4.661000000000E-01
	Si54	Si	-4.577000000000E-01	-1.524500000000E-01	4.661000000000E-01
	Si55	Si	3.049000000000E-01	2.288500000000E-01	4.661000000000E-01
	Si56	Si	4.577000000000E-01	1.524500000000E-01	-4.661000000000E-01
	Si57	Si	4.998000000000E-01	5.650000000000E-02	-2.086000000000E-01
	Si58	Si	1.130000000000E-01	2.499000000000E-01	2.086000000000E-01
	Si59	Si	-4.998000000000E-01	-5.650000000000E-02	2.086000000000E-01
	Si60	Si	-1.130000000000E-01	-2.499000000000E-01	-2.086000000000E-01
	O61	O	4.110000000000E-01	4.845000000000E-01	-1.810000000000E-01
	O62	O	-4.667000000000E-01	3.644500000000E-01	-3.888000000000E-01
	O63	O	3.607000000000E-01	-4.795500000000E-01	3.493000000000E-01
	O64	O	-2.711000000000E-01	2.666500000000E-01	3.888000000000E-01
	O65	O	-2.043000000000E-01	2.377500000000E-01	1.896000000000E-01
	O66	O	-1.860000000000E-01	2.833000000000E-01	-3.392000000000E-01
	O67	O	-4.090000000000E-02	3.196500000000E-01	3.493000000000E-01
	O68	O	-4.334000000000E-01	4.070000000000E-01	3.392000000000E-01
	O69	O	3.100000000000E-02	2.945000000000E-01	-1.810000000000E-01
	O70	O	1.860000000000E-01	-2.833000000000E-01	3.392000000000E-01
	O71	O	-3.607000000000E-01	4.795500000000E-01	-3.493000000000E-01
	O72	O	4.334000000000E-01	-4.070000000000E-01	-3.392000000000E-01
	O73	O	-2.625000000000E-01	-3.687500000000E-01	1.195000000000E-01
	O74	O	-3.458000000000E-01	3.271000000000E-01	5.000000000000E-01
	O75	O	-1.293000000000E-01	-3.117500000000E-01	-2.523000000000E-01
	O76	O	3.458000000000E-01	-3.271000000000E-01	5.000000000000E-01
	O77	O	-4.110000000000E-01	-4.845000000000E-01	1.810000000000E-01
	O78	O	-4.157000000000E-01	2.078500000000E-01	-4.148000000000E-01
	O79	O	3.765000000000E-01	4.353500000000E-01	2.523000000000E-01
	O80	O	4.157000000000E-01	2.921500000000E-01	4.148000000000E-01
	O81	O	2.043000000000E-01	-2.377500000000E-01	-1.896000000000E-01
	Si82	Si	-1.663000000000E-01	2.021500000000E-01	1.068000000000E-01
	O83	O	1.293000000000E-01	3.117500000000E-01	2.523000000000E-01
	Si84	Si	4.043000000000E-01	4.168500000000E-01	-1.068000000000E-01
	O85	O	-1.681000000000E-01	2.334500000000E-01	-6.220000000000E-02
	Si86	Si	1.663000000000E-01	-2.021500000000E-01	-1.068000000000E-01
	O87	O	-3.765000000000E-01	-4.353500000000E-01	-2.523000000000E-01
	Si88	Si	-4.043000000000E-01	-4.168500000000E-01	1.068000000000E-01
	O89	O	2.625000000000E-01	3.687500000000E-01	-1.195000000000E-01
	Si90	Si	-1.028000000000E-01	-3.341000000000E-01	-3.767000000000E-01
	O91	O	-1.872000000000E-01	-4.064000000000E-01	-3.723000000000E-01
	Si92	Si	3.318000000000E-01	4.486000000000E-01	3.767000000000E-01
	O93	O	4.669000000000E-01	4.159500000000E-01	6.220000000000E-02
	Si94	Si	1.028000000000E-01	3.341000000000E-01	3.767000000000E-01
	O95	O	1.872000000000E-01	4.064000000000E-01	3.723000000000E-01
	Si96	Si	-3.318000000000E-01	-4.486000000000E-01	-3.767000000000E-01
	O97	O	4.755000000000E-01	3.978500000000E-01	-1.896000000000E-01
	Si98	Si	4.860000000000E-01	-4.180000000000E-01	3.481000000000E-01
	O99	O	-1.375000000000E-01	-2.971500000000E-01	4.662000000000E-01
	Si100	Si	1.640000000000E-01	-2.570000000000E-01	-3.481000000000E-01
	O101	O	1.681000000000E-01	-2.334500000000E-01	6.220000000000E-02
	Si102	Si	-4.860000000000E-01	4.180000000000E-01	-3.481000000000E-01
	O103	O	4.057000000000E-01	4.312500000000E-01	-4.662000000000E-01
	Si104	Si	-1.640000000000E-01	2.570000000000E-01	3.481000000000E-01
	O105	O	-3.100000000000E-02	-2.945000000000E-01	1.810000000000E-01
	Si106	Si	-3.049000000000E-01	2.711500000000E-01	-4.661000000000E-01
	O107	O	1.375000000000E-01	2.971500000000E-01	-4.662000000000E-01
	Si108	Si	-4.577000000000E-01	3.475500000000E-01	4.661000000000E-01
	O109	O	-4.669000000000E-01	-4.159500000000E-01	-6.220000000000E-02
	Si110	Si	3.049000000000E-01	-2.711500000000E-01	4.661000000000E-01
	O111	O	-4.057000000000E-01	-4.312500000000E-01	4.662000000000E-01
	Si112	Si	4.577000000000E-01	-3.475500000000E-01	-4.661000000000E-01
	O113	O	-4.755000000000E-01	-3.978500000000E-01	1.896000000000E-01
	Si114	Si	4.998000000000E-01	-4.435000000000E-01	-2.086000000000E-01
	O115	O	4.667000000000E-01	-3.644500000000E-01	3.888000000000E-01
	Si116	Si	1.130000000000E-01	-2.501000000000E-01	2.086000000000E-01
	O117	O	4.090000000000E-02	-3.196500000000E-01	-3.493000000000E-01
	Si118	Si	-4.998000000000E-01	4.435000000000E-01	2.086000000000E-01
	O119	O	2.711000000000E-01	-2.666500000000E-01	-3.888000000000E-01
	Si120	Si	-1.130000000000E-01	2.501000000000E-01	-2.086000000000E-01
