data UTL
_chemical_name_common		'UTL'
_cell_length_a		16.09249080
_cell_length_b		16.09249080
_cell_length_c		12.44900000
_cell_angle_alpha		76.596503
_cell_angle_beta		103.403497
_cell_angle_gamma		128.557756
_space group_name_H-M_alt		'P 1'
_space_group_IT_number		1

loop_
	_atom_site_label
	_atom_site_type_symbol
	_atom_site_fract_x
	_atom_site_fract_y
	_atom_site_fract_z
	O1	O	9.910000000000E-02	2.603000000000E-01	-2.589000000000E-01
	O2	O	2.603000000000E-01	9.910000000000E-02	2.589000000000E-01
	O3	O	-9.910000000000E-02	-2.603000000000E-01	2.589000000000E-01
	O4	O	-2.603000000000E-01	-9.910000000000E-02	-2.589000000000E-01
	O5	O	1.366000000000E-01	1.214000000000E-01	-1.585000000000E-01
	O6	O	1.214000000000E-01	1.366000000000E-01	1.585000000000E-01
	O7	O	-1.366000000000E-01	-1.214000000000E-01	1.585000000000E-01
	O8	O	-1.214000000000E-01	-1.366000000000E-01	-1.585000000000E-01
	O9	O	-6.060000000000E-02	6.060000000000E-02	-2.012000000000E-01
	O10	O	6.060000000000E-02	-6.060000000000E-02	2.012000000000E-01
	O11	O	7.240000000000E-02	1.896000000000E-01	-4.860000000000E-02
	O12	O	1.896000000000E-01	7.240000000000E-02	4.860000000000E-02
	O13	O	-7.240000000000E-02	-1.896000000000E-01	4.860000000000E-02
	O14	O	-1.896000000000E-01	-7.240000000000E-02	-4.860000000000E-02
	O15	O	8.320000000000E-02	2.786000000000E-01	1.112000000000E-01
	O16	O	2.786000000000E-01	8.320000000000E-02	-1.112000000000E-01
	O17	O	-8.320000000000E-02	-2.786000000000E-01	-1.112000000000E-01
	O18	O	-2.786000000000E-01	-8.320000000000E-02	1.112000000000E-01
	O19	O	-7.480000000000E-02	7.480000000000E-02	8.900000000000E-02
	O20	O	7.480000000000E-02	-7.480000000000E-02	-8.900000000000E-02
	O21	O	2.173000000000E-01	-2.173000000000E-01	-1.756000000000E-01
	O22	O	-2.173000000000E-01	2.173000000000E-01	1.756000000000E-01
	O23	O	2.017000000000E-01	-3.897000000000E-01	-1.645000000000E-01
	O24	O	-3.897000000000E-01	2.017000000000E-01	1.645000000000E-01
	O25	O	-2.017000000000E-01	3.897000000000E-01	1.645000000000E-01
	O26	O	3.897000000000E-01	-2.017000000000E-01	-1.645000000000E-01
	O27	O	2.546000000000E-01	-2.546000000000E-01	-3.488000000000E-01
	O28	O	-2.546000000000E-01	2.546000000000E-01	3.488000000000E-01
	O29	O	-4.011000000000E-01	2.107000000000E-01	-2.147000000000E-01
	O30	O	2.107000000000E-01	-4.011000000000E-01	2.147000000000E-01
	O31	O	4.011000000000E-01	-2.107000000000E-01	2.147000000000E-01
	O32	O	-2.107000000000E-01	4.011000000000E-01	-2.147000000000E-01
	O33	O	-2.292000000000E-01	2.292000000000E-01	-2.224000000000E-01
	O34	O	2.292000000000E-01	-2.292000000000E-01	2.224000000000E-01
	O35	O	-2.582000000000E-01	2.582000000000E-01	-3.920000000000E-02
	O36	O	2.582000000000E-01	-2.582000000000E-01	3.920000000000E-02
	O37	O	-2.264000000000E-01	2.264000000000E-01	-4.336000000000E-01
	O38	O	2.264000000000E-01	-2.264000000000E-01	4.336000000000E-01
	O39	O	-2.559000000000E-01	6.830000000000E-02	-2.839000000000E-01
	O40	O	6.830000000000E-02	-2.559000000000E-01	2.839000000000E-01
	O41	O	2.559000000000E-01	-6.830000000000E-02	2.839000000000E-01
	O42	O	-6.830000000000E-02	2.559000000000E-01	-2.839000000000E-01
	O43	O	-3.978000000000E-01	2.088000000000E-01	4.670000000000E-01
	O44	O	2.088000000000E-01	-3.978000000000E-01	-4.670000000000E-01
	O45	O	3.978000000000E-01	-2.088000000000E-01	-4.670000000000E-01
	O46	O	-2.088000000000E-01	3.978000000000E-01	4.670000000000E-01
	O47	O	5.420000000000E-02	3.966000000000E-01	1.919000000000E-01
	O48	O	3.966000000000E-01	5.420000000000E-02	-1.919000000000E-01
	O49	O	-5.420000000000E-02	-3.966000000000E-01	-1.919000000000E-01
	O50	O	-3.966000000000E-01	-5.420000000000E-02	1.919000000000E-01
	O51	O	9.400000000000E-03	-4.708000000000E-01	1.902000000000E-01
	O52	O	-4.708000000000E-01	9.400000000000E-03	-1.902000000000E-01
	O53	O	-9.400000000000E-03	4.708000000000E-01	-1.902000000000E-01
	O54	O	4.708000000000E-01	-9.400000000000E-03	1.902000000000E-01
	O55	O	9.150000000000E-02	4.745000000000E-01	3.751000000000E-01
	O56	O	4.745000000000E-01	9.150000000000E-02	-3.751000000000E-01
	O57	O	-9.150000000000E-02	-4.745000000000E-01	-3.751000000000E-01
	O58	O	-4.745000000000E-01	-9.150000000000E-02	3.751000000000E-01
	O59	O	8.100000000000E-02	3.942000000000E-01	-4.163000000000E-01
	O60	O	3.942000000000E-01	8.100000000000E-02	4.163000000000E-01
	O61	O	-8.100000000000E-02	-3.942000000000E-01	4.163000000000E-01
	O62	O	-3.942000000000E-01	-8.100000000000E-02	-4.163000000000E-01
	O63	O	2.296396131253E-17	5.000000000000E-01	-5.000000000000E-01
	O64	O	5.000000000000E-01	1.231292693723E-16	-5.000000000000E-01
	O65	O	1.149000000000E-01	4.191000000000E-01	-2.049000000000E-01
	O66	O	4.191000000000E-01	1.149000000000E-01	2.049000000000E-01
	O67	O	-1.149000000000E-01	-4.191000000000E-01	2.049000000000E-01
	O68	O	-4.191000000000E-01	-1.149000000000E-01	-2.049000000000E-01
	O69	O	1.034000000000E-01	4.472000000000E-01	-1.190000000000E-02
	O70	O	4.472000000000E-01	1.034000000000E-01	1.190000000000E-02
	O71	O	-1.034000000000E-01	-4.472000000000E-01	1.190000000000E-02
	O72	O	-4.472000000000E-01	-1.034000000000E-01	-1.190000000000E-02
	O73	O	-8.450000000000E-02	2.731000000000E-01	3.640000000000E-02
	O74	O	2.731000000000E-01	-8.450000000000E-02	-3.640000000000E-02
	O75	O	8.450000000000E-02	-2.731000000000E-01	-3.640000000000E-02
	O76	O	-2.731000000000E-01	8.450000000000E-02	3.640000000000E-02
	Si77	Si	6.200000000000E-02	1.578000000000E-01	-1.670000000000E-01
	Si78	Si	1.578000000000E-01	6.200000000000E-02	1.670000000000E-01
	Si79	Si	-6.200000000000E-02	-1.578000000000E-01	1.670000000000E-01
	Si80	Si	-1.578000000000E-01	-6.200000000000E-02	-1.670000000000E-01
	Si81	Si	5.000000000000E-02	1.698000000000E-01	7.770000000000E-02
	Si82	Si	1.698000000000E-01	5.000000000000E-02	-7.770000000000E-02
	Si83	Si	-5.000000000000E-02	-1.698000000000E-01	-7.770000000000E-02
	Si84	Si	-1.698000000000E-01	-5.000000000000E-02	7.770000000000E-02
	Si85	Si	9.080000000000E-02	-5.000000000000E-01	2.422000000000E-01
	Si86	Si	5.000000000000E-01	9.080000000000E-02	-2.422000000000E-01
	Si87	Si	-9.080000000000E-02	-5.000000000000E-01	-2.422000000000E-01
	Si88	Si	-5.000000000000E-01	-9.080000000000E-02	2.422000000000E-01
	Si89	Si	9.510000000000E-02	4.931000000000E-01	4.982000000000E-01
	Si90	Si	4.931000000000E-01	9.510000000000E-02	-4.982000000000E-01
	Si91	Si	-9.510000000000E-02	-4.931000000000E-01	-4.982000000000E-01
	Si92	Si	-4.931000000000E-01	-9.510000000000E-02	4.982000000000E-01
	Si93	Si	1.010000000000E-01	4.866000000000E-01	-1.431000000000E-01
	Si94	Si	4.866000000000E-01	1.010000000000E-01	1.431000000000E-01
	Si95	Si	-1.010000000000E-01	-4.866000000000E-01	1.431000000000E-01
	Si96	Si	-4.866000000000E-01	-1.010000000000E-01	-1.431000000000E-01
	Si97	Si	4.030000000000E-02	3.497000000000E-01	8.270000000000E-02
	Si98	Si	3.497000000000E-01	4.030000000000E-02	-8.270000000000E-02
	Si99	Si	-4.030000000000E-02	-3.497000000000E-01	-8.270000000000E-02
	Si100	Si	-3.497000000000E-01	-4.030000000000E-02	8.270000000000E-02
	Si101	Si	5.810000000000E-02	3.333000000000E-01	-2.924000000000E-01
	Si102	Si	3.333000000000E-01	5.810000000000E-02	2.924000000000E-01
	Si103	Si	-5.810000000000E-02	-3.333000000000E-01	2.924000000000E-01
	Si104	Si	-3.333000000000E-01	-5.810000000000E-02	-2.924000000000E-01
	Si105	Si	2.660000000000E-01	-2.660000000000E-01	-2.153000000000E-01
	Si106	Si	-2.660000000000E-01	2.660000000000E-01	2.153000000000E-01
	Si107	Si	-2.753000000000E-01	2.753000000000E-01	-1.730000000000E-01
	Si108	Si	2.753000000000E-01	-2.753000000000E-01	1.730000000000E-01
	Si109	Si	-1.954000000000E-01	1.954000000000E-01	-3.064000000000E-01
	Si110	Si	1.954000000000E-01	-1.954000000000E-01	3.064000000000E-01
	Si111	Si	-2.722000000000E-01	2.722000000000E-01	4.612000000000E-01
	Si112	Si	2.722000000000E-01	-2.722000000000E-01	-4.612000000000E-01
	Si113	Si	-2.079000000000E-01	2.079000000000E-01	5.360000000000E-02
	Si114	Si	2.079000000000E-01	-2.079000000000E-01	-5.360000000000E-02
