data VET
_chemical_name_common		'VET'
_cell_length_a		26.09600000
_cell_length_b		13.04800000
_cell_length_c		4.94800000
_cell_angle_alpha		90.000000
_cell_angle_beta		90.000000
_cell_angle_gamma		90.000000
_space group_name_H-M_alt		'P 1'
_space_group_IT_number		1

loop_
	_atom_site_label
	_atom_site_type_symbol
	_atom_site_fract_x
	_atom_site_fract_y
	_atom_site_fract_z
	O1	O	4.705000000000E-02	3.550000000000E-02	-3.111000000000E-01
	O2	O	-4.705000000000E-02	-3.550000000000E-02	-3.111000000000E-01
	O3	O	1.775000000000E-02	-9.410000000000E-02	3.111000000000E-01
	O4	O	-1.775000000000E-02	9.410000000000E-02	3.111000000000E-01
	O5	O	1.280000000000E-01	1.424000000000E-01	-4.515000000000E-01
	O6	O	-1.280000000000E-01	-1.424000000000E-01	-4.515000000000E-01
	O7	O	7.120000000000E-02	-2.560000000000E-01	4.515000000000E-01
	O8	O	-7.120000000000E-02	2.560000000000E-01	4.515000000000E-01
	O9	O	1.192000000000E-01	7.910000000000E-02	4.730000000000E-02
	O10	O	-1.192000000000E-01	-7.910000000000E-02	4.730000000000E-02
	O11	O	3.955000000000E-02	-2.384000000000E-01	-4.730000000000E-02
	O12	O	-3.955000000000E-02	2.384000000000E-01	-4.730000000000E-02
	O13	O	1.371000000000E-01	-5.390000000000E-02	-3.418000000000E-01
	O14	O	-1.371000000000E-01	5.390000000000E-02	-3.418000000000E-01
	O15	O	-2.695000000000E-02	-2.742000000000E-01	3.418000000000E-01
	O16	O	2.695000000000E-02	2.742000000000E-01	3.418000000000E-01
	O17	O	-1.383500000000E-01	2.426000000000E-01	-1.570000000000E-01
	O18	O	1.383500000000E-01	-2.426000000000E-01	-1.570000000000E-01
	O19	O	1.213000000000E-01	2.767000000000E-01	1.570000000000E-01
	O20	O	-1.213000000000E-01	-2.767000000000E-01	1.570000000000E-01
	O21	O	-8.350000000000E-02	4.100000000000E-01	-2.141000000000E-01
	O22	O	8.350000000000E-02	-4.100000000000E-01	-2.141000000000E-01
	O23	O	2.050000000000E-01	1.670000000000E-01	2.141000000000E-01
	O24	O	-2.050000000000E-01	-1.670000000000E-01	2.141000000000E-01
	O25	O	-2.109500000000E-01	1.792000000000E-01	-4.881000000000E-01
	O26	O	2.109500000000E-01	-1.792000000000E-01	-4.881000000000E-01
	O27	O	8.960000000000E-02	4.219000000000E-01	4.881000000000E-01
	O28	O	-8.960000000000E-02	-4.219000000000E-01	4.881000000000E-01
	O29	O	-2.066500000000E-01	1.098000000000E-01	1.170000000000E-02
	O30	O	2.066500000000E-01	-1.098000000000E-01	1.170000000000E-02
	O31	O	5.490000000000E-02	4.133000000000E-01	-1.170000000000E-02
	O32	O	-5.490000000000E-02	-4.133000000000E-01	-1.170000000000E-02
	O33	O	2.500000000000E-01	0.000000000000E+00	3.922000000000E-01
	O34	O	0.000000000000E+00	5.000000000000E-01	-3.922000000000E-01
	Si35	Si	1.076000000000E-01	5.030000000000E-02	-2.632000000000E-01
	Si36	Si	-1.076000000000E-01	-5.030000000000E-02	-2.632000000000E-01
	Si37	Si	2.515000000000E-02	-2.152000000000E-01	2.632000000000E-01
	Si38	Si	-2.515000000000E-02	2.152000000000E-01	2.632000000000E-01
	Si39	Si	-8.295000000000E-02	2.870000000000E-01	-2.397000000000E-01
	Si40	Si	8.295000000000E-02	-2.870000000000E-01	-2.397000000000E-01
	Si41	Si	1.435000000000E-01	1.659000000000E-01	2.397000000000E-01
	Si42	Si	-1.435000000000E-01	-1.659000000000E-01	2.397000000000E-01
	Si43	Si	-1.734000000000E-01	1.466000000000E-01	-2.443000000000E-01
	Si44	Si	1.734000000000E-01	-1.466000000000E-01	-2.443000000000E-01
	Si45	Si	7.330000000000E-02	3.468000000000E-01	2.443000000000E-01
	Si46	Si	-7.330000000000E-02	-3.468000000000E-01	2.443000000000E-01
	Si47	Si	-2.407000000000E-01	1.147000000000E-01	2.826000000000E-01
	Si48	Si	2.407000000000E-01	-1.147000000000E-01	2.826000000000E-01
	Si49	Si	5.735000000000E-02	4.814000000000E-01	-2.826000000000E-01
	Si50	Si	-5.735000000000E-02	-4.814000000000E-01	-2.826000000000E-01
	Si51	Si	0.000000000000E+00	0.000000000000E+00	-5.000000000000E-01
	O52	O	-2.890500000000E-01	-1.792000000000E-01	-4.881000000000E-01
	O53	O	-4.288000000000E-01	-2.560000000000E-01	4.515000000000E-01
	O54	O	-4.104000000000E-01	4.219000000000E-01	4.881000000000E-01
	O55	O	3.629000000000E-01	5.390000000000E-02	-3.418000000000E-01
	O56	O	4.104000000000E-01	-4.219000000000E-01	4.881000000000E-01
	O57	O	4.822500000000E-01	9.410000000000E-02	3.111000000000E-01
	O58	O	2.933500000000E-01	1.098000000000E-01	1.170000000000E-02
	O59	O	4.730500000000E-01	-2.742000000000E-01	3.418000000000E-01
	O60	O	-2.933500000000E-01	-1.098000000000E-01	1.170000000000E-02
	O61	O	4.288000000000E-01	2.560000000000E-01	4.515000000000E-01
	O62	O	-4.451000000000E-01	4.133000000000E-01	-1.170000000000E-02
	O63	O	-4.730500000000E-01	2.742000000000E-01	3.418000000000E-01
	O64	O	4.451000000000E-01	-4.133000000000E-01	-1.170000000000E-02
	O65	O	-4.529500000000E-01	3.550000000000E-02	-3.111000000000E-01
	O66	O	-2.500000000000E-01	0.000000000000E+00	3.922000000000E-01
	O67	O	3.616500000000E-01	2.426000000000E-01	-1.570000000000E-01
	O68	O	-5.000000000000E-01	5.000000000000E-01	-3.922000000000E-01
	O69	O	-3.808000000000E-01	7.910000000000E-02	4.730000000000E-02
	Si70	Si	-3.924000000000E-01	5.030000000000E-02	-2.632000000000E-01
	O71	O	-3.616500000000E-01	-2.426000000000E-01	-1.570000000000E-01
	Si72	Si	3.924000000000E-01	-5.030000000000E-02	-2.632000000000E-01
	O73	O	-3.720000000000E-01	1.424000000000E-01	-4.515000000000E-01
	Si74	Si	-4.748500000000E-01	-2.152000000000E-01	2.632000000000E-01
	O75	O	-3.787000000000E-01	2.767000000000E-01	1.570000000000E-01
	Si76	Si	4.748500000000E-01	2.152000000000E-01	2.632000000000E-01
	O77	O	3.808000000000E-01	-7.910000000000E-02	4.730000000000E-02
	Si78	Si	4.170500000000E-01	2.870000000000E-01	-2.397000000000E-01
	O79	O	3.787000000000E-01	-2.767000000000E-01	1.570000000000E-01
	Si80	Si	-4.170500000000E-01	-2.870000000000E-01	-2.397000000000E-01
	O81	O	-4.822500000000E-01	-9.410000000000E-02	3.111000000000E-01
	Si82	Si	-3.565000000000E-01	1.659000000000E-01	2.397000000000E-01
	O83	O	4.165000000000E-01	4.100000000000E-01	-2.141000000000E-01
	Si84	Si	3.565000000000E-01	-1.659000000000E-01	2.397000000000E-01
	O85	O	-4.604500000000E-01	-2.384000000000E-01	-4.730000000000E-02
	Si86	Si	3.266000000000E-01	1.466000000000E-01	-2.443000000000E-01
	O87	O	-4.165000000000E-01	-4.100000000000E-01	-2.141000000000E-01
	Si88	Si	-3.266000000000E-01	-1.466000000000E-01	-2.443000000000E-01
	O89	O	3.720000000000E-01	-1.424000000000E-01	-4.515000000000E-01
	Si90	Si	-4.267000000000E-01	3.468000000000E-01	2.443000000000E-01
	O91	O	-2.950000000000E-01	1.670000000000E-01	2.141000000000E-01
	Si92	Si	4.267000000000E-01	-3.468000000000E-01	2.443000000000E-01
	O93	O	4.604500000000E-01	2.384000000000E-01	-4.730000000000E-02
	Si94	Si	2.593000000000E-01	1.147000000000E-01	2.826000000000E-01
	O95	O	2.950000000000E-01	-1.670000000000E-01	2.141000000000E-01
	Si96	Si	-2.593000000000E-01	-1.147000000000E-01	2.826000000000E-01
	O97	O	4.529500000000E-01	-3.550000000000E-02	-3.111000000000E-01
	Si98	Si	-4.426500000000E-01	4.814000000000E-01	-2.826000000000E-01
	O99	O	2.890500000000E-01	1.792000000000E-01	-4.881000000000E-01
	Si100	Si	4.426500000000E-01	-4.814000000000E-01	-2.826000000000E-01
	O101	O	-3.629000000000E-01	-5.390000000000E-02	-3.418000000000E-01
	Si102	Si	-5.000000000000E-01	0.000000000000E+00	-5.000000000000E-01
