data VFI
_chemical_name_common		'VFI'
_cell_length_a		18.28400000
_cell_length_b		18.28400000
_cell_length_c		8.58900000
_cell_angle_alpha		90.000000
_cell_angle_beta		90.000000
_cell_angle_gamma		120.000000
_space group_name_H-M_alt		'P 1'
_space_group_IT_number		1

loop_
	_atom_site_label
	_atom_site_type_symbol
	_atom_site_fract_x
	_atom_site_fract_y
	_atom_site_fract_z
	O1	O	4.153500000000E-01	-1.693000000000E-01	0.000000000000E+00
	O2	O	-4.153500000000E-01	1.693000000000E-01	-5.000000000000E-01
	O3	O	1.693000000000E-01	-4.153500000000E-01	0.000000000000E+00
	O4	O	4.153500000000E-01	-4.153500000000E-01	0.000000000000E+00
	O5	O	-4.153500000000E-01	4.153500000000E-01	-5.000000000000E-01
	O6	O	-1.693000000000E-01	4.153500000000E-01	-5.000000000000E-01
	O7	O	-4.153500000000E-01	1.693000000000E-01	0.000000000000E+00
	O8	O	4.153500000000E-01	-1.693000000000E-01	-5.000000000000E-01
	O9	O	-1.693000000000E-01	4.153500000000E-01	0.000000000000E+00
	O10	O	-4.153500000000E-01	4.153500000000E-01	0.000000000000E+00
	O11	O	4.153500000000E-01	-4.153500000000E-01	-5.000000000000E-01
	O12	O	1.693000000000E-01	-4.153500000000E-01	-5.000000000000E-01
	O13	O	2.493000000000E-01	4.986000000000E-01	0.000000000000E+00
	O14	O	-2.493000000000E-01	-4.986000000000E-01	-5.000000000000E-01
	O15	O	-4.986000000000E-01	-2.493000000000E-01	0.000000000000E+00
	O16	O	2.493000000000E-01	-2.493000000000E-01	0.000000000000E+00
	O17	O	-2.493000000000E-01	2.493000000000E-01	-5.000000000000E-01
	O18	O	4.986000000000E-01	2.493000000000E-01	-5.000000000000E-01
	O19	O	-2.493000000000E-01	-4.986000000000E-01	0.000000000000E+00
	O20	O	2.493000000000E-01	4.986000000000E-01	-5.000000000000E-01
	O21	O	4.986000000000E-01	2.493000000000E-01	0.000000000000E+00
	O22	O	-2.493000000000E-01	2.493000000000E-01	0.000000000000E+00
	O23	O	2.493000000000E-01	-2.493000000000E-01	-5.000000000000E-01
	O24	O	-4.986000000000E-01	-2.493000000000E-01	-5.000000000000E-01
	O25	O	8.340000000000E-02	-3.352000000000E-01	-1.600000000000E-03
	O26	O	-8.340000000000E-02	3.352000000000E-01	4.984000000000E-01
	O27	O	3.352000000000E-01	4.186000000000E-01	-1.600000000000E-03
	O28	O	-4.186000000000E-01	-8.340000000000E-02	-1.600000000000E-03
	O29	O	4.186000000000E-01	8.340000000000E-02	4.984000000000E-01
	O30	O	-3.352000000000E-01	-4.186000000000E-01	4.984000000000E-01
	O31	O	4.186000000000E-01	3.352000000000E-01	-4.984000000000E-01
	O32	O	-8.340000000000E-02	-4.186000000000E-01	-4.984000000000E-01
	O33	O	-3.352000000000E-01	8.340000000000E-02	-4.984000000000E-01
	O34	O	3.352000000000E-01	-8.340000000000E-02	1.600000000000E-03
	O35	O	8.340000000000E-02	4.186000000000E-01	1.600000000000E-03
	O36	O	-4.186000000000E-01	-3.352000000000E-01	1.600000000000E-03
	O37	O	-8.340000000000E-02	3.352000000000E-01	1.600000000000E-03
	O38	O	8.340000000000E-02	-3.352000000000E-01	-4.984000000000E-01
	O39	O	-3.352000000000E-01	-4.186000000000E-01	1.600000000000E-03
	O40	O	4.186000000000E-01	8.340000000000E-02	1.600000000000E-03
	O41	O	-4.186000000000E-01	-8.340000000000E-02	-4.984000000000E-01
	O42	O	3.352000000000E-01	4.186000000000E-01	-4.984000000000E-01
	O43	O	-4.186000000000E-01	-3.352000000000E-01	4.984000000000E-01
	O44	O	8.340000000000E-02	4.186000000000E-01	4.984000000000E-01
	O45	O	3.352000000000E-01	-8.340000000000E-02	4.984000000000E-01
	O46	O	-3.352000000000E-01	8.340000000000E-02	-1.600000000000E-03
	O47	O	-8.340000000000E-02	-4.186000000000E-01	-1.600000000000E-03
	O48	O	4.186000000000E-01	3.352000000000E-01	-1.600000000000E-03
	O49	O	-3.333000000000E-01	4.986000000000E-01	2.500000000000E-01
	O50	O	3.333000000000E-01	-4.986000000000E-01	-2.500000000000E-01
	O51	O	-4.986000000000E-01	1.681000000000E-01	2.500000000000E-01
	O52	O	-1.681000000000E-01	3.333000000000E-01	2.500000000000E-01
	O53	O	1.681000000000E-01	-3.333000000000E-01	-2.500000000000E-01
	O54	O	4.986000000000E-01	-1.681000000000E-01	-2.500000000000E-01
	O55	O	1.681000000000E-01	-4.986000000000E-01	2.500000000000E-01
	O56	O	3.333000000000E-01	-1.681000000000E-01	2.500000000000E-01
	O57	O	4.986000000000E-01	-3.333000000000E-01	2.500000000000E-01
	O58	O	-4.986000000000E-01	3.333000000000E-01	-2.500000000000E-01
	O59	O	-3.333000000000E-01	1.681000000000E-01	-2.500000000000E-01
	O60	O	-1.681000000000E-01	4.986000000000E-01	-2.500000000000E-01
	O61	O	-5.000000000000E-01	1.110223024625E-16	0.000000000000E+00
	O62	O	-5.000000000000E-01	5.551115123126E-17	-5.000000000000E-01
	O63	O	0.000000000000E+00	-5.000000000000E-01	0.000000000000E+00
	O64	O	-5.000000000000E-01	-5.000000000000E-01	0.000000000000E+00
	O65	O	-5.000000000000E-01	-5.000000000000E-01	-5.000000000000E-01
	O66	O	0.000000000000E+00	-5.000000000000E-01	-5.000000000000E-01
	O67	O	-4.167000000000E-01	2.775557561563E-17	2.500000000000E-01
	O68	O	4.167000000000E-01	-5.551115123126E-17	-2.500000000000E-01
	O69	O	0.000000000000E+00	-4.167000000000E-01	2.500000000000E-01
	O70	O	4.167000000000E-01	4.167000000000E-01	2.500000000000E-01
	O71	O	-4.167000000000E-01	-4.167000000000E-01	-2.500000000000E-01
	O72	O	0.000000000000E+00	4.167000000000E-01	-2.500000000000E-01
	Si73	Si	1.677000000000E-01	-3.333000000000E-01	-6.280000000000E-02
	Si74	Si	-1.677000000000E-01	3.333000000000E-01	4.372000000000E-01
	Si75	Si	3.333000000000E-01	-4.990000000000E-01	-6.280000000000E-02
	Si76	Si	4.990000000000E-01	-1.677000000000E-01	-6.280000000000E-02
	Si77	Si	-4.990000000000E-01	1.677000000000E-01	4.372000000000E-01
	Si78	Si	-3.333000000000E-01	4.990000000000E-01	4.372000000000E-01
	Si79	Si	-4.990000000000E-01	3.333000000000E-01	-4.372000000000E-01
	Si80	Si	-1.677000000000E-01	4.990000000000E-01	-4.372000000000E-01
	Si81	Si	-3.333000000000E-01	1.677000000000E-01	-4.372000000000E-01
	Si82	Si	3.333000000000E-01	-1.677000000000E-01	6.280000000000E-02
	Si83	Si	1.677000000000E-01	-4.990000000000E-01	6.280000000000E-02
	Si84	Si	4.990000000000E-01	-3.333000000000E-01	6.280000000000E-02
	Si85	Si	-1.677000000000E-01	3.333000000000E-01	6.280000000000E-02
	Si86	Si	1.677000000000E-01	-3.333000000000E-01	-4.372000000000E-01
	Si87	Si	-3.333000000000E-01	4.990000000000E-01	6.280000000000E-02
	Si88	Si	-4.990000000000E-01	1.677000000000E-01	6.280000000000E-02
	Si89	Si	4.990000000000E-01	-1.677000000000E-01	-4.372000000000E-01
	Si90	Si	3.333000000000E-01	-4.990000000000E-01	-4.372000000000E-01
	Si91	Si	4.990000000000E-01	-3.333000000000E-01	4.372000000000E-01
	Si92	Si	1.677000000000E-01	-4.990000000000E-01	4.372000000000E-01
	Si93	Si	3.333000000000E-01	-1.677000000000E-01	4.372000000000E-01
	Si94	Si	-3.333000000000E-01	1.677000000000E-01	-6.280000000000E-02
	Si95	Si	-1.677000000000E-01	4.990000000000E-01	-6.280000000000E-02
	Si96	Si	-4.990000000000E-01	3.333000000000E-01	-6.280000000000E-02
	Si97	Si	-4.172000000000E-01	0.000000000000E+00	6.290000000000E-02
	Si98	Si	4.172000000000E-01	0.000000000000E+00	-4.371000000000E-01
	Si99	Si	5.609167028028E-17	-4.172000000000E-01	6.290000000000E-02
	Si100	Si	4.172000000000E-01	4.172000000000E-01	6.290000000000E-02
	Si101	Si	-4.172000000000E-01	-4.172000000000E-01	-4.371000000000E-01
	Si102	Si	-5.609167028028E-17	4.172000000000E-01	-4.371000000000E-01
	Si103	Si	-4.172000000000E-01	2.775557561563E-17	4.371000000000E-01
	Si104	Si	4.172000000000E-01	4.172000000000E-01	4.371000000000E-01
	Si105	Si	-5.609167028028E-17	-4.172000000000E-01	4.371000000000E-01
	Si106	Si	5.609167028028E-17	4.172000000000E-01	-6.290000000000E-02
	Si107	Si	-4.172000000000E-01	-4.172000000000E-01	-6.290000000000E-02
	Si108	Si	4.172000000000E-01	-2.775557561563E-17	-6.290000000000E-02
