data WEI
_chemical_name_common		'WEI'
_cell_length_a		15.65081765
_cell_length_b		15.65081765
_cell_length_c		9.98900000
_cell_angle_alpha		90.000000
_cell_angle_beta		90.000000
_cell_angle_gamma		97.901593
_space group_name_H-M_alt		'P 1'
_space_group_IT_number		1

loop_
	_atom_site_label
	_atom_site_type_symbol
	_atom_site_fract_x
	_atom_site_fract_y
	_atom_site_fract_z
	O1	O	-2.442500000000E-01	-1.652500000000E-01	1.571000000000E-01
	O2	O	2.442500000000E-01	1.652500000000E-01	1.571000000000E-01
	O3	O	1.652500000000E-01	2.442500000000E-01	3.429000000000E-01
	O4	O	-1.652500000000E-01	-2.442500000000E-01	3.429000000000E-01
	O5	O	2.442500000000E-01	1.652500000000E-01	-1.571000000000E-01
	O6	O	-2.442500000000E-01	-1.652500000000E-01	-1.571000000000E-01
	O7	O	-1.652500000000E-01	-2.442500000000E-01	-3.429000000000E-01
	O8	O	1.652500000000E-01	2.442500000000E-01	-3.429000000000E-01
	O9	O	1.619000000000E-01	-8.060000000000E-02	0.000000000000E+00
	O10	O	-1.619000000000E-01	8.060000000000E-02	0.000000000000E+00
	O11	O	8.060000000000E-02	-1.619000000000E-01	-5.000000000000E-01
	O12	O	-8.060000000000E-02	1.619000000000E-01	-5.000000000000E-01
	O13	O	1.146500000000E-01	-1.146500000000E-01	2.500000000000E-01
	O14	O	-1.146500000000E-01	1.146500000000E-01	2.500000000000E-01
	O15	O	-1.146500000000E-01	1.146500000000E-01	-2.500000000000E-01
	O16	O	1.146500000000E-01	-1.146500000000E-01	-2.500000000000E-01
	O17	O	2.500000000000E-01	-6.938893903907E-17	1.982000000000E-01
	O18	O	2.775557561563E-17	2.500000000000E-01	3.018000000000E-01
	O19	O	2.500000000000E-01	2.775557561563E-17	-1.982000000000E-01
	O20	O	6.938893903907E-17	2.500000000000E-01	-3.018000000000E-01
	Si21	Si	1.955500000000E-01	-8.965000000000E-02	1.509000000000E-01
	Si22	Si	-1.955500000000E-01	8.965000000000E-02	1.509000000000E-01
	Si23	Si	8.965000000000E-02	-1.955500000000E-01	3.491000000000E-01
	Si24	Si	-8.965000000000E-02	1.955500000000E-01	3.491000000000E-01
	Si25	Si	-1.955500000000E-01	8.965000000000E-02	-1.509000000000E-01
	Si26	Si	1.955500000000E-01	-8.965000000000E-02	-1.509000000000E-01
	Si27	Si	-8.965000000000E-02	1.955500000000E-01	-3.491000000000E-01
	Si28	Si	8.965000000000E-02	-1.955500000000E-01	-3.491000000000E-01
	Si29	Si	2.500000000000E-01	2.500000000000E-01	2.500000000000E-01
	Si30	Si	2.500000000000E-01	2.500000000000E-01	-2.500000000000E-01
	O31	O	-3.347500000000E-01	2.442500000000E-01	-3.429000000000E-01
	O32	O	-3.347500000000E-01	-2.557500000000E-01	-3.429000000000E-01
	O33	O	2.557500000000E-01	-1.652500000000E-01	1.571000000000E-01
	O34	O	1.619000000000E-01	4.194000000000E-01	0.000000000000E+00
	O35	O	-3.381000000000E-01	-8.060000000000E-02	0.000000000000E+00
	O36	O	-3.381000000000E-01	4.194000000000E-01	0.000000000000E+00
	O37	O	1.652500000000E-01	-2.557500000000E-01	3.429000000000E-01
	O38	O	-1.619000000000E-01	-4.194000000000E-01	0.000000000000E+00
	O39	O	3.381000000000E-01	8.060000000000E-02	0.000000000000E+00
	O40	O	3.381000000000E-01	-4.194000000000E-01	0.000000000000E+00
	O41	O	-3.347500000000E-01	2.442500000000E-01	3.429000000000E-01
	O42	O	8.060000000000E-02	3.381000000000E-01	-5.000000000000E-01
	O43	O	-4.194000000000E-01	-1.619000000000E-01	-5.000000000000E-01
	O44	O	-4.194000000000E-01	3.381000000000E-01	-5.000000000000E-01
	O45	O	-3.347500000000E-01	-2.557500000000E-01	3.429000000000E-01
	O46	O	-8.060000000000E-02	-3.381000000000E-01	-5.000000000000E-01
	O47	O	4.194000000000E-01	1.619000000000E-01	-5.000000000000E-01
	O48	O	4.194000000000E-01	-3.381000000000E-01	-5.000000000000E-01
	O49	O	2.557500000000E-01	3.347500000000E-01	1.571000000000E-01
	O50	O	1.146500000000E-01	3.853500000000E-01	2.500000000000E-01
	O51	O	-3.853500000000E-01	-1.146500000000E-01	2.500000000000E-01
	O52	O	-3.853500000000E-01	3.853500000000E-01	2.500000000000E-01
	O53	O	-1.652500000000E-01	2.557500000000E-01	3.429000000000E-01
	O54	O	-1.146500000000E-01	-3.853500000000E-01	2.500000000000E-01
	O55	O	3.853500000000E-01	1.146500000000E-01	2.500000000000E-01
	O56	O	3.853500000000E-01	-3.853500000000E-01	2.500000000000E-01
	O57	O	3.347500000000E-01	-2.442500000000E-01	3.429000000000E-01
	O58	O	-1.146500000000E-01	-3.853500000000E-01	-2.500000000000E-01
	O59	O	3.853500000000E-01	1.146500000000E-01	-2.500000000000E-01
	O60	O	3.853500000000E-01	-3.853500000000E-01	-2.500000000000E-01
	O61	O	3.347500000000E-01	2.557500000000E-01	3.429000000000E-01
	O62	O	1.146500000000E-01	3.853500000000E-01	-2.500000000000E-01
	O63	O	-3.853500000000E-01	-1.146500000000E-01	-2.500000000000E-01
	O64	O	-3.853500000000E-01	3.853500000000E-01	-2.500000000000E-01
	O65	O	-2.442500000000E-01	3.347500000000E-01	1.571000000000E-01
	O66	O	2.500000000000E-01	-5.000000000000E-01	1.982000000000E-01
	O67	O	-2.500000000000E-01	6.938893903907E-17	1.982000000000E-01
	O68	O	-2.500000000000E-01	-5.000000000000E-01	1.982000000000E-01
	O69	O	2.442500000000E-01	-3.347500000000E-01	-1.571000000000E-01
	O70	O	-6.938893903907E-17	-2.500000000000E-01	3.018000000000E-01
	O71	O	-5.000000000000E-01	2.500000000000E-01	3.018000000000E-01
	O72	O	-5.000000000000E-01	-2.500000000000E-01	3.018000000000E-01
	O73	O	-2.557500000000E-01	1.652500000000E-01	-1.571000000000E-01
	O74	O	2.500000000000E-01	-5.000000000000E-01	-1.982000000000E-01
	O75	O	-2.500000000000E-01	9.714451465470E-17	-1.982000000000E-01
	O76	O	-2.500000000000E-01	-5.000000000000E-01	-1.982000000000E-01
	O77	O	-2.557500000000E-01	-3.347500000000E-01	-1.571000000000E-01
	O78	O	-2.775557561563E-17	-2.500000000000E-01	-3.018000000000E-01
	O79	O	-5.000000000000E-01	2.500000000000E-01	-3.018000000000E-01
	O80	O	-5.000000000000E-01	-2.500000000000E-01	-3.018000000000E-01
	O81	O	2.442500000000E-01	-3.347500000000E-01	1.571000000000E-01
	Si82	Si	1.955500000000E-01	4.103500000000E-01	1.509000000000E-01
	Si83	Si	-3.044500000000E-01	-8.965000000000E-02	1.509000000000E-01
	Si84	Si	-3.044500000000E-01	4.103500000000E-01	1.509000000000E-01
	O85	O	-2.442500000000E-01	3.347500000000E-01	-1.571000000000E-01
	Si86	Si	-1.955500000000E-01	-4.103500000000E-01	1.509000000000E-01
	Si87	Si	3.044500000000E-01	8.965000000000E-02	1.509000000000E-01
	Si88	Si	3.044500000000E-01	-4.103500000000E-01	1.509000000000E-01
	O89	O	2.557500000000E-01	-1.652500000000E-01	-1.571000000000E-01
	Si90	Si	8.965000000000E-02	3.044500000000E-01	3.491000000000E-01
	Si91	Si	-4.103500000000E-01	-1.955500000000E-01	3.491000000000E-01
	Si92	Si	-4.103500000000E-01	3.044500000000E-01	3.491000000000E-01
	O93	O	2.557500000000E-01	3.347500000000E-01	-1.571000000000E-01
	Si94	Si	-8.965000000000E-02	-3.044500000000E-01	3.491000000000E-01
	Si95	Si	4.103500000000E-01	1.955500000000E-01	3.491000000000E-01
	Si96	Si	4.103500000000E-01	-3.044500000000E-01	3.491000000000E-01
	O97	O	-2.557500000000E-01	1.652500000000E-01	1.571000000000E-01
	Si98	Si	-1.955500000000E-01	-4.103500000000E-01	-1.509000000000E-01
	Si99	Si	3.044500000000E-01	8.965000000000E-02	-1.509000000000E-01
	Si100	Si	3.044500000000E-01	-4.103500000000E-01	-1.509000000000E-01
	O101	O	-1.652500000000E-01	2.557500000000E-01	-3.429000000000E-01
	Si102	Si	1.955500000000E-01	4.103500000000E-01	-1.509000000000E-01
	Si103	Si	-3.044500000000E-01	-8.965000000000E-02	-1.509000000000E-01
	Si104	Si	-3.044500000000E-01	4.103500000000E-01	-1.509000000000E-01
	O105	O	3.347500000000E-01	-2.442500000000E-01	-3.429000000000E-01
	Si106	Si	-8.965000000000E-02	-3.044500000000E-01	-3.491000000000E-01
	Si107	Si	4.103500000000E-01	1.955500000000E-01	-3.491000000000E-01
	Si108	Si	4.103500000000E-01	-3.044500000000E-01	-3.491000000000E-01
	O109	O	3.347500000000E-01	2.557500000000E-01	-3.429000000000E-01
	Si110	Si	8.965000000000E-02	3.044500000000E-01	-3.491000000000E-01
	Si111	Si	-4.103500000000E-01	-1.955500000000E-01	-3.491000000000E-01
	Si112	Si	-4.103500000000E-01	3.044500000000E-01	-3.491000000000E-01
	O113	O	-2.557500000000E-01	-3.347500000000E-01	1.571000000000E-01
	Si114	Si	2.500000000000E-01	-2.500000000000E-01	2.500000000000E-01
	Si115	Si	-2.500000000000E-01	2.500000000000E-01	2.500000000000E-01
	Si116	Si	-2.500000000000E-01	-2.500000000000E-01	2.500000000000E-01
	O117	O	1.652500000000E-01	-2.557500000000E-01	-3.429000000000E-01
	Si118	Si	2.500000000000E-01	-2.500000000000E-01	-2.500000000000E-01
	Si119	Si	-2.500000000000E-01	2.500000000000E-01	-2.500000000000E-01
	Si120	Si	-2.500000000000E-01	-2.500000000000E-01	-2.500000000000E-01
