data YUG
_chemical_name_common		'YUG'
_cell_length_a		17.17936111
_cell_length_b		17.17936111
_cell_length_c		6.78200000
_cell_angle_alpha		77.345894
_cell_angle_beta		102.654106
_cell_angle_gamma		73.243523
_space group_name_H-M_alt		'P 1'
_space_group_IT_number		1

loop_
	_atom_site_label
	_atom_site_type_symbol
	_atom_site_fract_x
	_atom_site_fract_y
	_atom_site_fract_z
	O1	O	2.500000000000E-01	-6.938893903907E-18	5.000000000000E-01
	O2	O	-2.775557561563E-17	2.500000000000E-01	5.000000000000E-01
	O3	O	2.542000000000E-01	-8.570000000000E-02	2.237000000000E-01
	O4	O	-8.570000000000E-02	2.542000000000E-01	-2.237000000000E-01
	O5	O	-2.542000000000E-01	8.570000000000E-02	-2.237000000000E-01
	O6	O	8.570000000000E-02	-2.542000000000E-01	2.237000000000E-01
	O7	O	-1.861500000000E-01	3.965000000000E-02	1.898000000000E-01
	O8	O	3.965000000000E-02	-1.861500000000E-01	-1.898000000000E-01
	O9	O	1.861500000000E-01	-3.965000000000E-02	-1.898000000000E-01
	O10	O	-3.965000000000E-02	1.861500000000E-01	1.898000000000E-01
	O11	O	-1.032500000000E-01	-1.032500000000E-01	5.000000000000E-01
	O12	O	1.032500000000E-01	1.032500000000E-01	5.000000000000E-01
	O13	O	1.771000000000E-01	-1.771000000000E-01	5.250000000000E-02
	O14	O	-1.771000000000E-01	1.771000000000E-01	-5.250000000000E-02
	O15	O	-1.759500000000E-01	-1.759500000000E-01	0.000000000000E+00
	O16	O	1.759500000000E-01	1.759500000000E-01	0.000000000000E+00
	Si17	Si	-1.963000000000E-01	-3.740000000000E-02	3.538000000000E-01
	Si18	Si	-3.740000000000E-02	-1.963000000000E-01	-3.538000000000E-01
	Si19	Si	1.963000000000E-01	3.740000000000E-02	-3.538000000000E-01
	Si20	Si	3.740000000000E-02	1.963000000000E-01	3.538000000000E-01
	Si21	Si	2.352500000000E-01	-1.196500000000E-01	2.140000000000E-02
	Si22	Si	-1.196500000000E-01	2.352500000000E-01	-2.140000000000E-02
	Si23	Si	-2.352500000000E-01	1.196500000000E-01	-2.140000000000E-02
	Si24	Si	1.196500000000E-01	-2.352500000000E-01	2.140000000000E-02
	O25	O	5.000000000000E-01	2.500000000000E-01	5.000000000000E-01
	O26	O	-1.861500000000E-01	-4.603500000000E-01	1.898000000000E-01
	O27	O	3.138500000000E-01	3.965000000000E-02	1.898000000000E-01
	O28	O	3.138500000000E-01	-4.603500000000E-01	1.898000000000E-01
	O29	O	5.000000000000E-01	-2.500000000000E-01	5.000000000000E-01
	O30	O	3.965000000000E-02	3.138500000000E-01	-1.898000000000E-01
	O31	O	-4.603500000000E-01	-1.861500000000E-01	-1.898000000000E-01
	O32	O	-4.603500000000E-01	3.138500000000E-01	-1.898000000000E-01
	O33	O	-2.500000000000E-01	9.020562075079E-17	5.000000000000E-01
	O34	O	1.861500000000E-01	4.603500000000E-01	-1.898000000000E-01
	O35	O	-3.138500000000E-01	-3.965000000000E-02	-1.898000000000E-01
	O36	O	-3.138500000000E-01	4.603500000000E-01	-1.898000000000E-01
	O37	O	2.542000000000E-01	4.143000000000E-01	2.237000000000E-01
	O38	O	-3.965000000000E-02	-3.138500000000E-01	1.898000000000E-01
	O39	O	4.603500000000E-01	1.861500000000E-01	1.898000000000E-01
	O40	O	4.603500000000E-01	-3.138500000000E-01	1.898000000000E-01
	O41	O	-2.458000000000E-01	-8.570000000000E-02	2.237000000000E-01
	O42	O	-1.032500000000E-01	3.967500000000E-01	5.000000000000E-01
	O43	O	3.967500000000E-01	-1.032500000000E-01	5.000000000000E-01
	O44	O	3.967500000000E-01	3.967500000000E-01	5.000000000000E-01
	O45	O	-2.458000000000E-01	4.143000000000E-01	2.237000000000E-01
	O46	O	1.032500000000E-01	-3.967500000000E-01	5.000000000000E-01
	O47	O	-3.967500000000E-01	1.032500000000E-01	5.000000000000E-01
	O48	O	-3.967500000000E-01	-3.967500000000E-01	5.000000000000E-01
	O49	O	-2.500000000000E-01	5.000000000000E-01	5.000000000000E-01
	O50	O	1.771000000000E-01	3.229000000000E-01	5.250000000000E-02
	O51	O	-3.229000000000E-01	-1.771000000000E-01	5.250000000000E-02
	O52	O	-3.229000000000E-01	3.229000000000E-01	5.250000000000E-02
	O53	O	-8.570000000000E-02	-2.458000000000E-01	-2.237000000000E-01
	O54	O	-1.771000000000E-01	-3.229000000000E-01	-5.250000000000E-02
	O55	O	3.229000000000E-01	1.771000000000E-01	-5.250000000000E-02
	O56	O	3.229000000000E-01	-3.229000000000E-01	-5.250000000000E-02
	O57	O	4.143000000000E-01	2.542000000000E-01	-2.237000000000E-01
	O58	O	-1.759500000000E-01	3.240500000000E-01	0.000000000000E+00
	O59	O	3.240500000000E-01	-1.759500000000E-01	0.000000000000E+00
	O60	O	3.240500000000E-01	3.240500000000E-01	0.000000000000E+00
	O61	O	4.143000000000E-01	-2.458000000000E-01	-2.237000000000E-01
	O62	O	1.759500000000E-01	-3.240500000000E-01	0.000000000000E+00
	O63	O	-3.240500000000E-01	1.759500000000E-01	0.000000000000E+00
	O64	O	-3.240500000000E-01	-3.240500000000E-01	0.000000000000E+00
	O65	O	2.500000000000E-01	5.000000000000E-01	5.000000000000E-01
	Si66	Si	-1.963000000000E-01	4.626000000000E-01	3.538000000000E-01
	Si67	Si	3.037000000000E-01	-3.740000000000E-02	3.538000000000E-01
	Si68	Si	3.037000000000E-01	4.626000000000E-01	3.538000000000E-01
	O69	O	-2.542000000000E-01	-4.143000000000E-01	-2.237000000000E-01
	Si70	Si	-3.740000000000E-02	3.037000000000E-01	-3.538000000000E-01
	Si71	Si	4.626000000000E-01	-1.963000000000E-01	-3.538000000000E-01
	Si72	Si	4.626000000000E-01	3.037000000000E-01	-3.538000000000E-01
	O73	O	2.458000000000E-01	8.570000000000E-02	-2.237000000000E-01
	Si74	Si	1.963000000000E-01	-4.626000000000E-01	-3.538000000000E-01
	Si75	Si	-3.037000000000E-01	3.740000000000E-02	-3.538000000000E-01
	Si76	Si	-3.037000000000E-01	-4.626000000000E-01	-3.538000000000E-01
	O77	O	2.458000000000E-01	-4.143000000000E-01	-2.237000000000E-01
	Si78	Si	3.740000000000E-02	-3.037000000000E-01	3.538000000000E-01
	Si79	Si	-4.626000000000E-01	1.963000000000E-01	3.538000000000E-01
	Si80	Si	-4.626000000000E-01	-3.037000000000E-01	3.538000000000E-01
	O81	O	1.110223024625E-16	-2.500000000000E-01	5.000000000000E-01
	Si82	Si	2.352500000000E-01	3.803500000000E-01	2.140000000000E-02
	Si83	Si	-2.647500000000E-01	-1.196500000000E-01	2.140000000000E-02
	Si84	Si	-2.647500000000E-01	3.803500000000E-01	2.140000000000E-02
	O85	O	8.570000000000E-02	2.458000000000E-01	2.237000000000E-01
	Si86	Si	-1.196500000000E-01	-2.647500000000E-01	-2.140000000000E-02
	Si87	Si	3.803500000000E-01	2.352500000000E-01	-2.140000000000E-02
	Si88	Si	3.803500000000E-01	-2.647500000000E-01	-2.140000000000E-02
	O89	O	-4.143000000000E-01	-2.542000000000E-01	2.237000000000E-01
	Si90	Si	-2.352500000000E-01	-3.803500000000E-01	-2.140000000000E-02
	Si91	Si	2.647500000000E-01	1.196500000000E-01	-2.140000000000E-02
	Si92	Si	2.647500000000E-01	-3.803500000000E-01	-2.140000000000E-02
	O93	O	-4.143000000000E-01	2.458000000000E-01	2.237000000000E-01
	Si94	Si	1.196500000000E-01	2.647500000000E-01	2.140000000000E-02
	Si95	Si	-3.803500000000E-01	-2.352500000000E-01	2.140000000000E-02
	Si96	Si	-3.803500000000E-01	2.647500000000E-01	2.140000000000E-02
