data ZON
_chemical_name_common		'ZON'
_cell_length_a		6.91800000
_cell_length_b		14.87000000
_cell_length_c		17.23600000
_cell_angle_alpha		90.000000
_cell_angle_beta		90.000000
_cell_angle_gamma		90.000000
_space group_name_H-M_alt		'P 1'
_space_group_IT_number		1

loop_
	_atom_site_label
	_atom_site_type_symbol
	_atom_site_fract_x
	_atom_site_fract_y
	_atom_site_fract_z
	O1	O	-8.310000000000E-02	-3.211000000000E-01	3.694000000000E-01
	O2	O	8.310000000000E-02	3.211000000000E-01	-1.306000000000E-01
	O3	O	-8.310000000000E-02	-1.789000000000E-01	-3.694000000000E-01
	O4	O	8.310000000000E-02	1.789000000000E-01	1.306000000000E-01
	O5	O	8.310000000000E-02	3.211000000000E-01	-3.694000000000E-01
	O6	O	-8.310000000000E-02	-3.211000000000E-01	1.306000000000E-01
	O7	O	8.310000000000E-02	1.789000000000E-01	3.694000000000E-01
	O8	O	-8.310000000000E-02	-1.789000000000E-01	-1.306000000000E-01
	O9	O	2.937000000000E-01	-3.178000000000E-01	3.876000000000E-01
	O10	O	-2.937000000000E-01	3.178000000000E-01	-1.124000000000E-01
	O11	O	2.937000000000E-01	-1.822000000000E-01	-3.876000000000E-01
	O12	O	-2.937000000000E-01	1.822000000000E-01	1.124000000000E-01
	O13	O	-2.937000000000E-01	3.178000000000E-01	-3.876000000000E-01
	O14	O	2.937000000000E-01	-3.178000000000E-01	1.124000000000E-01
	O15	O	-2.937000000000E-01	1.822000000000E-01	3.876000000000E-01
	O16	O	2.937000000000E-01	-1.822000000000E-01	-1.124000000000E-01
	O17	O	1.063000000000E-01	-1.676000000000E-01	3.597000000000E-01
	O18	O	-1.063000000000E-01	1.676000000000E-01	-1.403000000000E-01
	O19	O	1.063000000000E-01	-3.324000000000E-01	-3.597000000000E-01
	O20	O	-1.063000000000E-01	3.324000000000E-01	1.403000000000E-01
	O21	O	-1.063000000000E-01	1.676000000000E-01	-3.597000000000E-01
	O22	O	1.063000000000E-01	-1.676000000000E-01	1.403000000000E-01
	O23	O	-1.063000000000E-01	3.324000000000E-01	3.597000000000E-01
	O24	O	1.063000000000E-01	-3.324000000000E-01	-1.403000000000E-01
	O25	O	1.434000000000E-01	-2.895000000000E-01	2.500000000000E-01
	O26	O	-1.434000000000E-01	2.895000000000E-01	-2.500000000000E-01
	O27	O	1.434000000000E-01	-2.105000000000E-01	-2.500000000000E-01
	O28	O	-1.434000000000E-01	2.105000000000E-01	2.500000000000E-01
	O29	O	8.210000000000E-02	4.300000000000E-03	3.957000000000E-01
	O30	O	-8.210000000000E-02	-4.300000000000E-03	-1.043000000000E-01
	O31	O	8.210000000000E-02	4.957000000000E-01	-3.957000000000E-01
	O32	O	-8.210000000000E-02	-4.957000000000E-01	1.043000000000E-01
	O33	O	-8.210000000000E-02	-4.300000000000E-03	-3.957000000000E-01
	O34	O	8.210000000000E-02	4.300000000000E-03	1.043000000000E-01
	O35	O	-8.210000000000E-02	-4.957000000000E-01	3.957000000000E-01
	O36	O	8.210000000000E-02	4.957000000000E-01	-1.043000000000E-01
	O37	O	3.080000000000E-01	-1.020000000000E-01	4.765000000000E-01
	O38	O	-3.080000000000E-01	1.020000000000E-01	-2.350000000000E-02
	O39	O	3.080000000000E-01	-3.980000000000E-01	-4.765000000000E-01
	O40	O	-3.080000000000E-01	3.980000000000E-01	2.350000000000E-02
	O41	O	-3.080000000000E-01	1.020000000000E-01	-4.765000000000E-01
	O42	O	3.080000000000E-01	-1.020000000000E-01	2.350000000000E-02
	O43	O	-3.080000000000E-01	3.980000000000E-01	4.765000000000E-01
	O44	O	3.080000000000E-01	-3.980000000000E-01	-2.350000000000E-02
	O45	O	-6.930000000000E-02	-1.179000000000E-01	4.877000000000E-01
	O46	O	6.930000000000E-02	1.179000000000E-01	-1.230000000000E-02
	O47	O	-6.930000000000E-02	-3.821000000000E-01	-4.877000000000E-01
	O48	O	6.930000000000E-02	3.821000000000E-01	1.230000000000E-02
	O49	O	6.930000000000E-02	1.179000000000E-01	-4.877000000000E-01
	O50	O	-6.930000000000E-02	-1.179000000000E-01	1.230000000000E-02
	O51	O	6.930000000000E-02	3.821000000000E-01	4.877000000000E-01
	O52	O	-6.930000000000E-02	-3.821000000000E-01	-1.230000000000E-02
	O53	O	-3.882000000000E-01	-3.996000000000E-01	4.311000000000E-01
	O54	O	3.882000000000E-01	3.996000000000E-01	-6.890000000000E-02
	O55	O	-3.882000000000E-01	-1.004000000000E-01	-4.311000000000E-01
	O56	O	3.882000000000E-01	1.004000000000E-01	6.890000000000E-02
	O57	O	3.882000000000E-01	3.996000000000E-01	-4.311000000000E-01
	O58	O	-3.882000000000E-01	-3.996000000000E-01	6.890000000000E-02
	O59	O	3.882000000000E-01	1.004000000000E-01	4.311000000000E-01
	O60	O	-3.882000000000E-01	-1.004000000000E-01	-6.890000000000E-02
	O61	O	-4.941000000000E-01	-2.500000000000E-01	-5.000000000000E-01
	O62	O	4.941000000000E-01	2.500000000000E-01	-9.509940087936E-17
	O63	O	4.941000000000E-01	2.500000000000E-01	-5.000000000000E-01
	O64	O	-4.941000000000E-01	-2.500000000000E-01	-2.220446049250E-16
	Si65	Si	1.146000000000E-01	-2.738000000000E-01	3.416000000000E-01
	Si66	Si	-1.146000000000E-01	2.738000000000E-01	-1.584000000000E-01
	Si67	Si	1.146000000000E-01	-2.262000000000E-01	-3.416000000000E-01
	Si68	Si	-1.146000000000E-01	2.262000000000E-01	1.584000000000E-01
	Si69	Si	-1.146000000000E-01	2.738000000000E-01	-3.416000000000E-01
	Si70	Si	1.146000000000E-01	-2.738000000000E-01	1.584000000000E-01
	Si71	Si	-1.146000000000E-01	2.262000000000E-01	3.416000000000E-01
	Si72	Si	1.146000000000E-01	-2.262000000000E-01	-1.584000000000E-01
	Si73	Si	1.069000000000E-01	-9.600000000000E-02	4.297000000000E-01
	Si74	Si	-1.069000000000E-01	9.600000000000E-02	-7.030000000000E-02
	Si75	Si	1.069000000000E-01	-4.040000000000E-01	-4.297000000000E-01
	Si76	Si	-1.069000000000E-01	4.040000000000E-01	7.030000000000E-02
	Si77	Si	-1.069000000000E-01	9.600000000000E-02	-4.297000000000E-01
	Si78	Si	1.069000000000E-01	-9.600000000000E-02	7.030000000000E-02
	Si79	Si	-1.069000000000E-01	4.040000000000E-01	4.297000000000E-01
	Si80	Si	1.069000000000E-01	-4.040000000000E-01	-7.030000000000E-02
	Si81	Si	-1.557000000000E-01	-3.995000000000E-01	4.268000000000E-01
	Si82	Si	1.557000000000E-01	3.995000000000E-01	-7.320000000000E-02
	Si83	Si	-1.557000000000E-01	-1.005000000000E-01	-4.268000000000E-01
	Si84	Si	1.557000000000E-01	1.005000000000E-01	7.320000000000E-02
	Si85	Si	1.557000000000E-01	3.995000000000E-01	-4.268000000000E-01
	Si86	Si	-1.557000000000E-01	-3.995000000000E-01	7.320000000000E-02
	Si87	Si	1.557000000000E-01	1.005000000000E-01	4.268000000000E-01
	Si88	Si	-1.557000000000E-01	-1.005000000000E-01	-7.320000000000E-02
	Si89	Si	4.297000000000E-01	-1.585000000000E-01	-4.605000000000E-01
	Si90	Si	-4.297000000000E-01	1.585000000000E-01	3.950000000000E-02
	Si91	Si	4.297000000000E-01	-3.415000000000E-01	4.605000000000E-01
	Si92	Si	-4.297000000000E-01	3.415000000000E-01	-3.950000000000E-02
	Si93	Si	-4.297000000000E-01	1.585000000000E-01	4.605000000000E-01
	Si94	Si	4.297000000000E-01	-1.585000000000E-01	-3.950000000000E-02
	Si95	Si	-4.297000000000E-01	3.415000000000E-01	-4.605000000000E-01
	Si96	Si	4.297000000000E-01	-3.415000000000E-01	3.950000000000E-02
