data_Zr-UiO-66
_symmetry_space_group_name_H-M 'F -4 3 M'
_space_group_IT_number         216
_cell_length_a                 20.65625924
_cell_length_b                 20.65625924
_cell_length_c                 20.65625924
_cell_angle_alpha              90.000000
_cell_angle_beta               90.000000
_cell_angle_gamma              90.000000
loop_
_atom_site_type_symbol
_atom_site_fract_x
_atom_site_fract_y
_atom_site_fract_z
C 6.644697254415E-03 -2.972356760111E-01  2.027643239889E-01
C 7.054327071656E-03 -1.848149705396E-01  2.321916070465E-01
C -4.230442532487E-03 -1.520050638300E-01 -3.479949361700E-01
H 9.433863877615E-02  9.433863877615E-02  4.056613612238E-01
H 6.921124729712E-03  2.200852050127E-01 -1.336109834463E-01
O 2.585188945728E-03  3.292246259661E-01 -9.389769094691E-02
O -4.505087861997E-01 -4.949121380034E-02 -4.949121380034E-02
O -6.742941780128E-02  4.325705821987E-01 -6.742941780128E-02
Zr 4.079934692762E-21  3.795702859680E-01  0.000000000000E+00
