data_foo_12
_symmetry_space_group_name_H-M 'F -4 3 M'
_space_group_IT_number         216
_cell_length_a                 20.72120505
_cell_length_b                 20.72120505
_cell_length_c                 20.72120505
_cell_angle_alpha              90.000000
_cell_angle_beta               90.000000
_cell_angle_gamma              90.000000
loop_
_atom_site_type_symbol
_atom_site_fract_x
_atom_site_fract_y
_atom_site_fract_z
C     5.973982259188E-03 -2.972800416592E-01  2.027199583408E-01
C     6.291501079734E-03 -1.850542329857E-01  2.323327310116E-01
C    -3.950120534695E-03  1.519640400335E-01  3.480359599665E-01
H    -9.404110155016E-02  9.404110155016E-02 -4.059588984498E-01
H     6.184846928058E-03  2.200944676322E-01 -1.340429793535E-01
O     2.485966076885E-03  3.294320383692E-01 -9.396232335400E-02
O     4.506532268506E-01  4.934677314944E-02 -4.934677314944E-02
O    -6.721112668926E-02  4.327888733107E-01 -6.721112668926E-02
Zr   -4.806557127832E-22  3.797549071491E-01  0.000000000000E+00
