data_Zr-UiO-66
_symmetry_space_group_name_H-M 'F -4 3 M'
_space_group_IT_number         216
_cell_length_a                 20.68840227
_cell_length_b                 20.68840227
_cell_length_c                 20.68840227
_cell_angle_alpha              90.000000
_cell_angle_beta               90.000000
_cell_angle_gamma              90.000000
loop_
_atom_site_type_symbol
_atom_site_fract_x
_atom_site_fract_y
_atom_site_fract_z
C 6.356359270614E-03  2.027428710513E-01 -2.972571289487E-01
C 6.730166799928E-03 -1.849341176413E-01  2.322625362337E-01
C -4.110293620055E-03 -3.480151867552E-01 -1.519848132448E-01
H 4.058094224034E-01  9.419057759661E-02  9.419057759661E-02
H 6.613888990994E-03  2.200901912554E-01 -1.338259974354E-01
O 2.543639646076E-03  3.293273323740E-01 -9.393053241633E-02
O -4.942011006279E-02 -4.505798899372E-01 -4.942011006279E-02
O 4.326794681776E-01 -6.732053182245E-02 -6.732053182245E-02
Zr 0.000000000000E+00  3.796614223804E-01  0.000000000000E+00
