data_Zr-UiO-66
_symmetry_space_group_name_H-M 'F -4 3 M'
_space_group_IT_number         216
_cell_length_a                 20.62461343
_cell_length_b                 20.62461343
_cell_length_c                 20.62461343
_cell_angle_alpha              90.000000
_cell_angle_beta               90.000000
_cell_angle_gamma              90.000000
loop_
_atom_site_type_symbol
_atom_site_fract_x
_atom_site_fract_y
_atom_site_fract_z
C 6.957652782728E-03  2.027855176447E-01 -2.972144823553E-01
C 7.405597193374E-03 -1.846973718939E-01  2.321217247392E-01
C -4.358737342688E-03 -3.479747543888E-01 -1.520252456112E-01
H 4.055150543365E-01  9.448494566354E-02  9.448494566354E-02
H 7.251856163474E-03  2.200796876105E-01 -1.333990196286E-01
O 2.627408344431E-03  3.291225541419E-01 -9.386627570768E-02
O -4.956294275495E-02 -4.504370572450E-01 -4.956294275495E-02
O 4.324629955987E-01 -6.753700440130E-02 -6.753700440130E-02
Zr 0.000000000000E+00  3.794798785697E-01  0.000000000000E+00
