data_Zr-UiO-66
_symmetry_space_group_name_H-M 'F -4 3 M'
_space_group_IT_number         216
_cell_length_a                 20.59271166
_cell_length_b                 20.59271166
_cell_length_c                 20.59271166
_cell_angle_alpha              90.000000
_cell_angle_beta               90.000000
_cell_angle_gamma              90.000000
loop_
_atom_site_type_symbol
_atom_site_fract_x
_atom_site_fract_y
_atom_site_fract_z
C 7.332211933819E-03  2.028036785866E-01 -2.971963214134E-01
C 7.828046868942E-03 -1.845789813332E-01  2.320521303208E-01
C -4.500375884146E-03 -3.479546374050E-01 -1.520453625950E-01
H 4.053689938110E-01  9.463100618904E-02  9.463100618904E-02
H 7.649486827546E-03  2.200733107212E-01 -1.331859304021E-01
O 2.662926333766E-03  3.290054002314E-01 -9.383496632130E-02
O -4.964091966376E-02 -4.503590803362E-01 -4.964091966376E-02
O 4.323561693064E-01 -6.764383069365E-02 -6.764383069365E-02
Zr 0.000000000000E+00  3.794070939893E-01  0.000000000000E+00
