data_Zr-UiO-66
_symmetry_space_group_name_H-M 'F -4 3 M'
_space_group_IT_number         216
_cell_length_a                 20.53432198
_cell_length_b                 20.53432198
_cell_length_c                 20.53432198
_cell_angle_alpha              90.000000
_cell_angle_beta               90.000000
_cell_angle_gamma              90.000000
loop_
_atom_site_type_symbol
_atom_site_fract_x
_atom_site_fract_y
_atom_site_fract_z
C 8.186300967444E-03  2.028403477468E-01 -2.971596522532E-01
C 8.800233323686E-03 -1.843708249615E-01  2.319276309943E-01
C -4.825044141511E-03 -3.479172717752E-01 -1.520827282248E-01
H 4.051082983023E-01  9.489170169771E-02  9.489170169771E-02
H 8.564318486811E-03  2.200592009321E-01 -1.328037770804E-01
O 2.747657249496E-03  3.288136958946E-01 -9.377732385661E-02
O -4.981561796571E-02 -4.501843820343E-01 -4.981561796571E-02
O 4.321676763396E-01 -6.783232366038E-02 -6.783232366038E-02
Zr 0.000000000000E+00  3.792638080842E-01  0.000000000000E+00
