data_Zr-UiO-66
_symmetry_space_group_name_H-M 'F -4 3 M'
_space_group_IT_number         216
_cell_length_a                 20.56123269
_cell_length_b                 20.56123269
_cell_length_c                 20.56123269
_cell_angle_alpha              90.000000
_cell_angle_beta               90.000000
_cell_angle_gamma              90.000000
loop_
_atom_site_type_symbol
_atom_site_fract_x
_atom_site_fract_y
_atom_site_fract_z
C 7.733097484822E-03  2.028231871572E-01 -2.971768128428E-01
C 8.279407047908E-03 -1.844617375339E-01  2.319831891354E-01
C -4.659369995271E-03 -3.479363256420E-01 -1.520636743580E-01
H 4.052315535755E-01  9.476844642450E-02  9.476844642450E-02
H 8.074730101822E-03  2.200663755040E-01 -1.329751740415E-01
O 2.711211856069E-03  3.289058168598E-01 -9.380283039453E-02
O -4.974850036592E-02 -4.502514996341E-01 -4.974850036592E-02
O 4.322576463395E-01 -6.774235366046E-02 -6.774235366046E-02
Zr 0.000000000000E+00  3.793185295464E-01  0.000000000000E+00
