data_Zr-UiO-66
_symmetry_space_group_name_H-M 'F -4 3 M'
_space_group_IT_number         216
_cell_length_a                 20.50410803
_cell_length_b                 20.50410803
_cell_length_c                 20.50410803
_cell_angle_alpha              90.000000
_cell_angle_beta               90.000000
_cell_angle_gamma              90.000000
loop_
_atom_site_type_symbol
_atom_site_fract_x
_atom_site_fract_y
_atom_site_fract_z
C 8.665851423114E-03  2.028615384633E-01 -2.971384615367E-01
C 9.345180913978E-03 -1.842587005841E-01  2.318618050779E-01
C -5.004824110539E-03 -3.478942606285E-01 -1.521057393715E-01
H 4.049695080131E-01  9.503049198688E-02  9.503049198688E-02
H 9.074411728859E-03  2.200543231592E-01 -1.326016532788E-01
O 2.791375603350E-03  3.287082702615E-01 -9.375368443210E-02
O -4.989090230052E-02 -4.501090976995E-01 -4.989090230052E-02
O 4.320664248197E-01 -6.793357518032E-02 -6.793357518032E-02
Zr 0.000000000000E+00  3.791787326353E-01  0.000000000000E+00
