data_Zr-UiO-66
_symmetry_space_group_name_H-M 'F -4 3 M'
_space_group_IT_number         216
_cell_length_a                 20.44315017
_cell_length_b                 20.44315017
_cell_length_c                 20.44315017
_cell_angle_alpha              90.000000
_cell_angle_beta               90.000000
_cell_angle_gamma              90.000000
loop_
_atom_site_type_symbol
_atom_site_fract_x
_atom_site_fract_y
_atom_site_fract_z
C 9.940250451349E-03  2.028999139866E-01 -2.971000860134E-01
C 1.079955594276E-02 -1.840288042498E-01  2.317269249165E-01
C -5.464441616159E-03 -3.478452173106E-01 -1.521547826894E-01
H 4.046860780468E-01  9.531392195321E-02  9.531392195321E-02
H 1.044512100054E-02  2.200398113376E-01 -1.321900636150E-01
O 2.893329115836E-03  3.284876444149E-01 -9.371416821107E-02
O 5.005774558902E-02 -4.499422544110E-01 -5.005774558902E-02
O 4.318591343949E-01 -6.814086560509E-02 -6.814086560509E-02
Zr 0.000000000000E+00  3.789973466619E-01  0.000000000000E+00
