data_Zr-UiO-66
_symmetry_space_group_name_H-M 'F -4 3 M'
_space_group_IT_number         216
_cell_length_a                 20.47402701
_cell_length_b                 20.47402701
_cell_length_c                 20.47402701
_cell_angle_alpha              90.000000
_cell_angle_beta               90.000000
_cell_angle_gamma              90.000000
loop_
_atom_site_type_symbol
_atom_site_fract_x
_atom_site_fract_y
_atom_site_fract_z
C 9.227728220290E-03  2.028810637510E-01 -2.971189362490E-01
C 9.985278966981E-03 -1.841453412232E-01  2.317947922354E-01
C -5.208898599252E-03 -3.478705094613E-01 -1.521294905387E-01
H 4.048327429426E-01  9.516725705744E-02  9.516725705744E-02
H 9.676535273500E-03  2.200472150526E-01 -1.323986272917E-01
O 2.835312463418E-03  3.285996156869E-01 -9.373318808384E-02
O -4.997445258449E-02 -4.500255474155E-01 -4.997445258449E-02
O 4.319673638414E-01 -6.803263615863E-02 -6.803263615863E-02
Zr 0.000000000000E+00  3.790891020605E-01  0.000000000000E+00
