data_Zr-UiO-66
_symmetry_space_group_name_H-M 'F -4 3 M'
_space_group_IT_number         216
_cell_length_a                 20.41514639
_cell_length_b                 20.41514639
_cell_length_c                 20.41514639
_cell_angle_alpha              90.000000
_cell_angle_beta               90.000000
_cell_angle_gamma              90.000000
loop_
_atom_site_type_symbol
_atom_site_fract_x
_atom_site_fract_y
_atom_site_fract_z
C 1.077111963047E-02  2.029144393895E-01 -2.970855606105E-01
C 1.175482815162E-02 -1.839326762424E-01  2.316706476004E-01
C -5.754094988927E-03 -3.478182263076E-01 -1.521817736924E-01
H 4.045662459080E-01  9.543375409195E-02  9.543375409195E-02
H 1.134140395455E-02  2.200299565854E-01 -1.320114112267E-01
O 2.940022692511E-03  3.283772933151E-01 -9.370280783011E-02
O -5.014330825565E-02 -4.498566917444E-01 -5.014330825565E-02
O 4.317752342899E-01 -6.822476571008E-02 -6.822476571008E-02
Zr 0.000000000000E+00  3.789302756263E-01  0.000000000000E+00
